#------------------------------------------------------------------------------
#$Date: 2022-04-26 11:22:45 +0300 (Tue, 26 Apr 2022) $
#$Revision: 274678 $
#$URL: file:///home/coder/svn-repositories/cod/cif/8/10/50/8105064.cif $
#------------------------------------------------------------------------------
#
# This file is available in the Crystallography Open Database (COD),
# http://www.crystallography.net/
#
# All data on this site have been placed in the public domain by the
# contributors.
#
data_8105064
loop_
_publ_author_name
'Hulushe, Siya T.'
'Manyeruke, Meloddy H.'
'Hosten, Eric C.'
'Kaye, Perry T.'
_publ_section_title
;
 Crystal structure of 3-acetyl-6-bromo-4-hydroxy-2H-chromen-2-one,
 C11H7BrO4
;
_journal_issue                   1
_journal_name_full
'Zeitschrift f\"ur Kristallographie - New Crystal Structures'
_journal_page_first              221
_journal_page_last               222
_journal_paper_doi               10.1515/ncrs-2019-0590
_journal_volume                  235
_journal_year                    2019
_chemical_formula_moiety         'C11 H7 Br O4'
_chemical_formula_sum            'C11 H7 Br O4'
_chemical_formula_weight         283.08
_chemical_melting_point          195
_chemical_name_systematic        3-acetyl-6-bromo-4-hydroxy-2H-chromen-2-one
_space_group_crystal_system      triclinic
_space_group_IT_number           2
_space_group_name_Hall           '-P 1'
_space_group_name_H-M_alt        'P -1'
_atom_sites_solution_hydrogens   geom
_audit_creation_method           SHELXL-2018/3
_cell_angle_alpha                98.075(4)
_cell_angle_beta                 100.741(4)
_cell_angle_gamma                95.325(5)
_cell_formula_units_Z            2
_cell_length_a                   4.3164(5)
_cell_length_b                   10.7922(12)
_cell_length_c                   11.1521(11)
_cell_measurement_reflns_used    9998
_cell_measurement_temperature    200(2)
_cell_measurement_theta_max      28.33
_cell_measurement_theta_min      2.90
_cell_volume                     501.55(10)
_computing_cell_refinement       'APEX2 v2011.4-1 (Bruker AXS)'
_computing_data_collection       'Bruker Instrument Service v2011.4.0.0'
_computing_data_reduction        'SAINT V7.68A (Bruker AXS, 2009)[1]'
_computing_molecular_graphics    'Ortep-3 for Windows (Farrugia, 2012)[4]'
_computing_publication_material
'PLATON (Spek, 2009)[5] and MERCURY (Macrae, 2008)[6]'
_computing_structure_refinement
'SHELXL-2018/3 (Sheldrick, 2015) and ShelXle (H\"ubschle, 2011)[3]'
_computing_structure_solution    'SHELXT-2018/2 (Sheldrick, 2015)[2]'
_diffrn_ambient_temperature      200(2)
_diffrn_detector_area_resol_mean 8.3333
_diffrn_measured_fraction_theta_full 0.999
_diffrn_measured_fraction_theta_max 0.998
_diffrn_measurement_device_type  'Bruker APEX-II CCD'
_diffrn_measurement_method       '\f and \w scans'
_diffrn_radiation_monochromator  graphite
_diffrn_radiation_type           MoK\a
_diffrn_radiation_wavelength     0.71073
_diffrn_reflns_av_R_equivalents  0.0215
_diffrn_reflns_av_unetI/netI     0.0123
_diffrn_reflns_Laue_measured_fraction_full 0.999
_diffrn_reflns_Laue_measured_fraction_max 0.998
_diffrn_reflns_limit_h_max       5
_diffrn_reflns_limit_h_min       -5
_diffrn_reflns_limit_k_max       14
_diffrn_reflns_limit_k_min       -14
_diffrn_reflns_limit_l_max       14
_diffrn_reflns_limit_l_min       -14
_diffrn_reflns_number            22323
_diffrn_reflns_point_group_measured_fraction_full 0.999
_diffrn_reflns_point_group_measured_fraction_max 0.998
_diffrn_reflns_theta_full        25.242
_diffrn_reflns_theta_max         28.329
_diffrn_reflns_theta_min         1.920
_exptl_absorpt_coefficient_mu    4.092
_exptl_absorpt_correction_T_max  1.0000
_exptl_absorpt_correction_T_min  0.6841
_exptl_absorpt_correction_type   numerical
_exptl_absorpt_process_details   'SADABS V2008/1 (Bruker AXS)'
_exptl_crystal_colour            colourless
_exptl_crystal_density_diffrn    1.874
_exptl_crystal_density_method    'not measured'
_exptl_crystal_description       rod
_exptl_crystal_F_000             280
_exptl_crystal_recrystallization_method Methanol/Hexane
_exptl_crystal_size_max          0.521
_exptl_crystal_size_mid          0.099
_exptl_crystal_size_min          0.064
_refine_diff_density_max         0.525
_refine_diff_density_min         -0.247
_refine_diff_density_rms         0.056
_refine_ls_extinction_coef       .
_refine_ls_extinction_method     none
_refine_ls_goodness_of_fit_ref   1.094
_refine_ls_hydrogen_treatment    constr
_refine_ls_matrix_type           full
_refine_ls_number_parameters     147
_refine_ls_number_reflns         2483
_refine_ls_number_restraints     0
_refine_ls_restrained_S_all      1.094
_refine_ls_R_factor_all          0.0234
_refine_ls_R_factor_gt           0.0203
_refine_ls_shift/su_max          0.000
_refine_ls_shift/su_mean         0.000
_refine_ls_structure_factor_coef Fsqd
_refine_ls_weighting_details
'w=1/[\s^2^(Fo^2^)+(0.0278P)^2^+0.1894P] where P=(Fo^2^+2Fc^2^)/3'
_refine_ls_weighting_scheme      calc
_refine_ls_wR_factor_gt          0.0529
_refine_ls_wR_factor_ref         0.0544
_reflns_Friedel_coverage         0.000
_reflns_Friedel_fraction_full    .
_reflns_Friedel_fraction_max     .
_reflns_number_gt                2286
_reflns_number_total             2483
_reflns_threshold_expression     'I > 2\s(I)'
_cod_data_source_file            suppl_ncrs-2019-0590_suppl.cif
_cod_data_source_block           ja035
_cod_original_cell_volume        501.55(9)
_cod_database_code               8105064
_shelx_space_group_comment
;
The symmetry employed for this shelxl refinement is uniquely defined
by the following loop, which should always be used as a source of
symmetry information in preference to the above space-group names.
They are only intended as comments.
;
_shelx_estimated_absorpt_t_min   0.224
_shelx_estimated_absorpt_t_max   0.780
_shelx_res_file
;
TITL ja035_a.res in P-1
    ja035.res
    created by SHELXL-2018/3 at 10:06:22 on 08-Feb-2019
REM Old TITL ja035_p_P1 in P1
REM SHELXT solution in P-1: R1 0.111, Rweak 0.012, Alpha 0.068
REM <I/s>   0.000 for    0 systematic absences,  Orientation as input
REM Formula found by SHELXT:  C11 O4 Br
CELL 0.71073   4.3164  10.7922  11.1521  98.075 100.741  95.325
ZERR    2.00   0.0005   0.0012   0.0011   0.004   0.004   0.005
LATT  1
SFAC C H O BR
UNIT 22 14 8 2

EQIV $1 -x,1-y,1-z

HTAB O4 O3
HTAB O4 O4_$1

ACTA
BOND $H
CONF
FMAP 2
HTAB
L.S. 100
LIST 4
PLAN 20
SIZE 0.064 0.099 0.521
TEMP -73.150

REM WGHT 0.027800 0.189400
REM WGHT 0.027800 0.189400
REM WGHT 0.027800 0.189400
WGHT    0.027800    0.189400
FVAR       0.16788
BR1   4    0.137214    0.179932    0.018840    11.00000    0.04524    0.04259 =
         0.02291    0.00495    0.00079    0.00872
O1    3    0.778604    0.135355    0.535509    11.00000    0.03348    0.02919 =
         0.02441    0.00538    0.00196    0.01332
O2    3    0.925080    0.201497    0.734664    11.00000    0.04260    0.04268 =
         0.02574    0.00818   -0.00069    0.01521
O3    3    0.313113    0.482786    0.708653    11.00000    0.03975    0.03449 =
         0.03359   -0.00036    0.00977    0.01268
O4    3    0.186086    0.406024    0.487760    11.00000    0.03447    0.03211 =
         0.02930    0.00065    0.00329    0.01731
AFIX 147
H4    2    0.187571    0.452297    0.555097    11.00000   -1.50000
AFIX   0
C1    1    0.760128    0.218572    0.640113    11.00000    0.02799    0.02748 =
         0.02594    0.00638    0.00515    0.00586
C2    1    0.549553    0.314712    0.624287    11.00000    0.02416    0.02575 =
         0.02434    0.00433    0.00539    0.00451
C3    1    0.382119    0.322999    0.506326    11.00000    0.02286    0.02329 =
         0.02694    0.00426    0.00520    0.00469
C4    1    0.423405    0.238868    0.399997    11.00000    0.02312    0.02266 =
         0.02392    0.00299    0.00439    0.00382
C5    1    0.274473    0.248385    0.279274    11.00000    0.02656    0.02624 =
         0.02725    0.00584    0.00363    0.00582
AFIX  43
H5    2    0.140138    0.311862    0.264499    11.00000   -1.20000
AFIX   0
C6    1    0.326231    0.164410    0.182918    11.00000    0.02789    0.03029 =
         0.02273    0.00449    0.00265    0.00229
C7    1    0.515680    0.068420    0.202796    11.00000    0.03306    0.02900 =
         0.02681   -0.00073    0.00813    0.00482
AFIX  43
H7    2    0.543009    0.009749    0.134778    11.00000   -1.20000
AFIX   0
C8    1    0.663683    0.058808    0.321710    11.00000    0.03118    0.02543 =
         0.03142    0.00377    0.00690    0.00986
AFIX  43
H8    2    0.793860   -0.006008    0.336341    11.00000   -1.20000
AFIX   0
C9    1    0.618575    0.145444    0.419075    11.00000    0.02359    0.02467 =
         0.02408    0.00535    0.00362    0.00473
C10   1    0.506258    0.403952    0.728188    11.00000    0.02901    0.03222 =
         0.02717    0.00375    0.00916    0.00337
C11   1    0.679582    0.408836    0.856305    11.00000    0.04614    0.05638 =
         0.02396    0.00157    0.00750    0.01359
AFIX 137
H11A  2    0.623638    0.329581    0.885067    11.00000   -1.50000
H11B  2    0.621464    0.479164    0.909931    11.00000   -1.50000
H11C  2    0.908764    0.421006    0.859012    11.00000   -1.50000
AFIX   0
HKLF 4




REM  ja035_a.res in P-1
REM wR2 = 0.0544, GooF = S = 1.094, Restrained GooF = 1.094 for all data
REM R1 = 0.0203 for 2286 Fo > 4sig(Fo) and 0.0234 for all 2483 data
REM 147 parameters refined using 0 restraints

END

WGHT      0.0278      0.1894

REM Instructions for potential hydrogen bonds
HTAB O4 O3
EQIV $2 -x+1, -y, -z
HTAB C7 Br1_$2
EQIV $3 -x+2, -y, -z+1
HTAB C8 O2_$3

REM Highest difference peak  0.525,  deepest hole -0.247,  1-sigma level  0.056
Q1    1   0.0833  0.2393  0.0563  11.00000  0.05    0.53
Q2    1   0.5444  0.3579  0.6746  11.00000  0.05    0.34
Q3    1   0.1008  0.1061  0.0336  11.00000  0.05    0.34
Q4    1   0.4627  0.3146  0.5750  11.00000  0.05    0.34
Q5    1   0.4027  0.2792  0.4490  11.00000  0.05    0.33
Q6    1   0.6161  0.2553  0.6326  11.00000  0.05    0.33
Q7    1   0.2362  0.2655  0.0228  11.00000  0.05    0.31
Q8    1   0.4187  0.1119  0.2033  11.00000  0.05    0.29
Q9    1   0.6105  0.0961  0.3701  11.00000  0.05    0.28
Q10   1   0.4819  0.1857  0.4067  11.00000  0.05    0.27
Q11   1   0.3519  0.2431  0.3494  11.00000  0.05    0.27
Q12   1   0.6081  0.0723  0.2631  11.00000  0.05    0.26
Q13   1   0.6247  0.4002  0.7896  11.00000  0.05    0.25
Q14   1   0.3557  0.2181  0.2348  11.00000  0.05    0.24
Q15   1   0.6860  0.1403  0.4761  11.00000  0.05    0.24
Q16   1   0.6324  0.3658  0.8708  11.00000  0.05    0.22
Q17   1   0.8750  0.3754  0.8662  11.00000  0.05    0.20
Q18   1   0.7050  0.5114  0.8888  11.00000  0.05    0.19
Q19   1   0.2312  0.2768  0.2750  11.00000  0.05    0.19
Q20   1   0.4761  0.4579  0.7174  11.00000  0.05    0.19
;
_shelx_hkl_file
;
  -1   0   0    4.54    0.14
  -1   0   0    4.38    0.14
  -1   0   0    4.52    0.14
  -1   0   0    4.40    0.13
  -1   0   0    4.43    0.13
  -1   0   0    4.47    0.12
  -1   0   0    4.48    0.16
  -1   0   0    4.45    0.16
  -1   0   0    4.37    0.14
   1   0   0    4.63    0.14
   1   0   0    4.50    0.14
   1   0   0    4.34    0.13
   1   0   0    4.49    0.13
   1   0   0    4.50    0.13
   1   0   0    4.66    0.13
   1   0   0    4.39    0.11
   1   0   0    4.59    0.12
   1   0   0    4.43    0.14
   1   0   0    4.49    0.14
  -2   0   0   13.35    0.35
  -2   0   0   13.38    0.37
  -2   0   0   13.54    0.37
  -2   0   0   13.44    0.40
  -2   0   0   13.39    0.34
  -2   0   0   13.24    0.45
  -2   0   0   14.17    0.45
  -2   0   0   14.37    0.38
  -2   0   0   13.82    0.38
  -2   0   0   13.67    0.40
   2   0   0   13.50    0.31
   2   0   0   13.91    0.40
   2   0   0   13.41    0.46
   2   0   0   13.66    0.38
   2   0   0   13.55    0.37
   2   0   0   13.79    0.38
   2   0   0   13.82    0.40
   2   0   0   13.99    0.38
   2   0   0   13.47    0.34
  -3   0   0   12.02    0.39
  -3   0   0   12.79    0.38
  -3   0   0   11.94    0.44
  -3   0   0   12.06    0.44
  -3   0   0   12.07    0.39
  -3   0   0   12.19    0.35
  -3   0   0   11.75    0.33
  -3   0   0   12.27    0.37
  -3   0   0   11.93    0.36
   3   0   0   11.43    0.33
   3   0   0   12.77    0.40
   3   0   0   13.87    0.45
   3   0   0   12.13    0.30
   3   0   0   12.14    0.37
   3   0   0   12.33    0.36
   3   0   0   12.26    0.39
   3   0   0   12.11    0.38
  -4   0   0    5.34    0.25
  -4   0   0    5.11    0.21
  -4   0   0    6.11    0.26
  -4   0   0    5.87    0.22
  -4   0   0    5.24    0.23
   4   0   0    5.54    0.26
   4   0   0    5.34    0.25
   4   0   0    5.63    0.18
   4   0   0    5.58    0.23
   4   0   0    5.56    0.21
  -5   0   0    0.83    0.16
  -5   0   0    0.47    0.14
   5   0   0    0.55    0.16
   5   0   0    0.57    0.15
   5   0   0    0.49    0.09
   5  -1   0    4.21    0.18
   5  -1   0    4.66    0.27
   5  -1   0    4.29    0.26
  -5   1   0    3.92    0.26
  -5   1   0    4.18    0.23
  -5   1   0    4.11    0.26
   4  -1   0    3.68    0.22
   4  -1   0    3.69    0.15
   4  -1   0    3.78    0.22
   4  -1   0    3.21    0.20
   4  -1   0    3.78    0.18
   4  -1   0    3.85    0.19
  -4   1   0    3.52    0.21
  -4   1   0    4.07    0.19
  -4   1   0    3.76    0.18
  -4   1   0    3.76    0.18
  -4   1   0    3.65    0.20
  -4   1   0    3.64    0.21
   3  -1   0    0.00    0.12
   3  -1   0    0.12    0.08
   3  -1   0    0.22    0.06
   3  -1   0    0.13    0.07
   3  -1   0    0.24    0.08
   3  -1   0    0.20    0.05
   3  -1   0    0.26    0.07
   3  -1   0    0.13    0.08
   3  -1   0    0.10    0.07
  -3   1   0    0.26    0.07
  -3   1   0    0.25    0.09
  -3   1   0    0.20    0.08
  -3   1   0    0.16    0.06
  -3   1   0    0.24    0.08
  -3   1   0    0.22    0.07
  -3   1   0    0.20    0.06
  -3   1   0    0.14    0.07
  -3   1   0    0.24    0.08
  -3   1   0    0.25    0.09
   2  -1   0   26.77    0.72
   2  -1   0   26.12    0.64
   2  -1   0   25.71    0.57
   2  -1   0   26.13    0.69
   2  -1   0   26.26    0.72
   2  -1   0   25.99    0.68
   2  -1   0   26.83    0.66
   2  -1   0   26.03    0.62
   2  -1   0   26.62    0.81
   2  -1   0   26.09    0.81
   2  -1   0   26.67    0.69
  -2   1   0   26.73    0.72
  -2   1   0   26.02    0.81
  -2   1   0   26.41    0.69
  -2   1   0   26.98    0.72
  -2   1   0   26.33    0.64
  -2   1   0   25.84    0.61
  -2   1   0   26.98    0.82
  -2   1   0   26.94    0.69
  -2   1   0   26.80    0.66
  -2   1   0   26.33    0.68
  -2   1   0   26.07    0.61
   1  -1   0   81.63    2.00
   1  -1   0   84.03    2.04
   1  -1   0   81.93    2.13
   1  -1   0   83.92    1.84
   1  -1   0   82.44    1.90
   1  -1   0   82.73    2.13
   1  -1   0   82.63    1.72
   1  -1   0   84.43    1.84
   1  -1   0   83.84    2.00
   1  -1   0   82.24    2.41
   1  -1   0   85.11    1.98
  -1   1   0   83.37    1.84
  -1   1   0   83.17    2.00
  -1   1   0   82.94    2.42
  -1   1   0   84.59    1.84
  -1   1   0   83.21    1.72
  -1   1   0   84.67    2.04
  -1   1   0   85.36    1.98
  -1   1   0   83.55    1.90
  -1   1   0   80.56    2.00
  -1   1   0   82.91    2.41
  -1   1   0   82.13    2.13
   0  -1   0    9.29    0.25
   0   1   0    9.00    0.25
   0   1   0   10.53    0.26
   0   1   0    9.79    0.25
  -1  -1   0    7.41    0.21
  -1  -1   0    7.19    0.18
  -1  -1   0    6.86    0.20
  -1  -1   0    7.09    0.21
  -1  -1   0    7.07    0.24
  -1  -1   0    7.11    0.20
  -1  -1   0    7.39    0.21
  -1  -1   0    7.39    0.22
   1   1   0    6.94    0.20
   1   1   0    6.95    0.16
   1   1   0    7.22    0.20
   1   1   0    7.45    0.20
   1   1   0    7.17    0.18
   1   1   0    7.19    0.24
   1   1   0    7.37    0.21
   1   1   0    7.17    0.20
   1   1   0    7.32    0.21
  -2  -1   0   22.17    0.61
  -2  -1   0   21.62    0.58
  -2  -1   0   21.93    0.69
  -2  -1   0   21.81    0.57
  -2  -1   0   21.91    0.52
  -2  -1   0   21.51    0.68
  -2  -1   0   22.22    0.54
  -2  -1   0   22.15    0.58
  -2  -1   0   22.21    0.61
  -2  -1   0   21.91    0.69
  -2  -1   0   21.26    0.57
   2   1   0   21.89    0.52
   2   1   0   22.01    0.57
   2   1   0   21.89    0.61
   2   1   0   22.28    0.59
   2   1   0   22.30    0.61
   2   1   0   22.11    0.58
   2   1   0   21.53    0.48
   2   1   0   21.99    0.69
   2   1   0   21.55    0.56
  -3  -1   0   10.58    0.30
  -3  -1   0   10.70    0.41
  -3  -1   0   10.78    0.32
  -3  -1   0   10.59    0.34
  -3  -1   0   11.48    0.35
  -3  -1   0   10.73    0.36
  -3  -1   0   10.86    0.37
  -3  -1   0   10.31    0.33
   3   1   0   11.04    0.36
   3   1   0   10.93    0.35
   3   1   0   11.25    0.27
   3   1   0   10.22    0.30
   3   1   0   11.02    0.37
   3   1   0   10.41    0.34
   3   1   0   11.25    0.33
   3   1   0   11.02    0.42
  -4  -1   0    0.28    0.09
  -4  -1   0    0.17    0.09
  -4  -1   0    0.10    0.11
  -4  -1   0    0.14    0.11
   4   1   0    0.15    0.07
   4   1   0    0.09    0.10
   4   1   0    0.18    0.11
  -5  -1   0    2.43    0.21
  -5  -1   0    2.44    0.21
   5   1   0    2.28    0.21
   5   1   0    2.26    0.21
   5   1   0    2.81    0.15
   5  -2   0    1.31    0.11
   5  -2   0    1.35    0.18
   5  -2   0    1.34    0.18
  -5   2   0    1.16    0.17
  -5   2   0    1.13    0.14
  -5   2   0    1.32    0.17
   4  -2   0    2.89    0.16
   4  -2   0    3.30    0.19
   4  -2   0    3.05    0.19
   4  -2   0    3.15    0.17
   4  -2   0    3.49    0.15
  -4   2   0    3.49    0.17
  -4   2   0    3.46    0.17
  -4   2   0    3.15    0.17
  -4   2   0    3.02    0.19
  -4   2   0    3.22    0.19
  -4   2   0    3.22    0.21
   3  -2   0   22.74    0.62
   3  -2   0   22.14    0.55
   3  -2   0   21.63    0.57
   3  -2   0   22.51    0.50
   3  -2   0   21.64    0.64
   3  -2   0   21.62    0.60
   3  -2   0   22.88    0.65
   3  -2   0   22.69    0.58
  -3   2   0   22.20    0.64
  -3   2   0   22.08    0.61
  -3   2   0   21.78    0.73
  -3   2   0   22.42    0.55
  -3   2   0   22.55    0.64
  -3   2   0   22.63    0.57
  -3   2   0   21.34    0.54
  -3   2   0   22.26    0.72
  -3   2   0   21.85    0.58
  -3   2   0   21.41    0.60
   2  -2   0   13.45    0.35
   2  -2   0   13.06    0.39
   2  -2   0   13.35    0.39
   2  -2   0   12.39    0.36
   2  -2   0   13.39    0.37
   2  -2   0   12.99    0.33
   2  -2   0   13.31    0.44
   2  -2   0   13.45    0.37
   2  -2   0   13.08    0.30
   2  -2   0   12.99    0.34
  -2   2   0   13.74    0.45
  -2   2   0   12.78    0.34
  -2   2   0   12.99    0.43
  -2   2   0   13.07    0.39
  -2   2   0   13.23    0.39
  -2   2   0   13.75    0.37
  -2   2   0   12.99    0.35
  -2   2   0   12.67    0.33
  -2   2   0   12.94    0.36
  -2   2   0   13.16    0.33
  -2   2   0   12.88    0.37
   1  -2   0   21.69    0.55
   1  -2   0   21.32    0.65
   1  -2   0   21.66    0.49
   1  -2   0   21.50    0.55
   1  -2   0   21.52    0.51
   1  -2   0   21.43    0.57
   1  -2   0   20.70    0.54
   1  -2   0   21.11    0.46
   1  -2   0   21.08    0.57
   1  -2   0   21.50    0.54
   1  -2   0   21.28    0.49
  -1   2   0   20.64    0.54
  -1   2   0   21.56    0.45
  -1   2   0   21.40    0.57
  -1   2   0   21.31    0.54
  -1   2   0   21.57    0.49
  -1   2   0   21.15    0.51
  -1   2   0   21.86    0.49
  -1   2   0   21.88    0.55
  -1   2   0   21.64    0.52
  -1   2   0   21.66    0.55
  -1   2   0   21.12    0.65
  -1   2   0   21.29    0.65
   0  -2   0   93.82    1.99
   0  -2   0   95.76    2.18
   0  -2   0   87.13    2.19
   0  -2   0   89.25    2.23
   0  -2   0   94.45    1.99
   0  -2   0   93.58    2.32
   0  -2   0   91.27    2.62
   0  -2   0   91.21    1.89
   0  -2   0   91.26    2.23
   0  -2   0   83.65    2.33
   0   2   0   86.82    2.22
   0   2   0   82.64    2.33
   0   2   0   88.19    2.62
   0   2   0   95.11    1.99
   0   2   0   92.53    2.18
   0   2   0   89.80    2.62
   0   2   0   89.27    2.19
   0   2   0   91.46    2.23
   0   2   0   91.56    2.15
  -1  -2   0   23.29    0.71
  -1  -2   0   23.95    0.61
  -1  -2   0   23.99    0.59
  -1  -2   0   23.77    0.63
  -1  -2   0   22.58    0.63
  -1  -2   0   24.23    0.59
  -1  -2   0   23.09    0.50
  -1  -2   0   23.28    0.60
  -1  -2   0   23.40    0.54
  -1  -2   0   23.58    0.59
   1   2   0   22.82    0.59
   1   2   0   23.36    0.59
   1   2   0   23.21    0.50
   1   2   0   23.42    0.71
   1   2   0   24.01    0.61
   1   2   0   24.54    0.61
   1   2   0   24.07    0.59
   1   2   0   22.75    0.63
   1   2   0   23.34    0.54
   1   2   0   23.81    0.72
  -2  -2   0   11.40    0.33
  -2  -2   0   11.87    0.36
  -2  -2   0   12.04    0.35
  -2  -2   0   11.75    0.40
  -2  -2   0   11.98    0.36
  -2  -2   0   11.61    0.35
  -2  -2   0   11.76    0.30
  -2  -2   0   12.14    0.34
   2   2   0   11.41    0.30
   2   2   0   11.62    0.36
   2   2   0   12.19    0.35
   2   2   0   11.65    0.33
   2   2   0   11.88    0.41
   2   2   0   11.60    0.34
   2   2   0   11.99    0.40
   2   2   0   11.37    0.34
   2   2   0   11.78    0.27
   2   2   0   11.61    0.36
  -3  -2   0    0.10    0.08
  -3  -2   0    0.03    0.07
  -3  -2   0    0.16    0.08
  -3  -2   0    0.08    0.09
  -3  -2   0    0.05    0.07
  -3  -2   0    0.02    0.07
  -3  -2   0    0.08    0.07
  -3  -2   0    0.00    0.07
  -3  -2   0    0.07    0.08
   3   2   0    0.10    0.06
   3   2   0    0.06    0.08
   3   2   0    0.09    0.10
   3   2   0   -0.04    0.07
   3   2   0    0.03    0.10
   3   2   0    0.06    0.08
   3   2   0    0.00    0.07
   3   2   0    0.09    0.08
   3   2   0    0.08    0.05
  -4  -2   0    2.71    0.17
  -4  -2   0    2.61    0.20
  -4  -2   0    2.33    0.19
  -4  -2   0    2.54    0.18
   4   2   0    2.65    0.19
   4   2   0    3.06    0.20
   4   2   0    2.48    0.13
  -5  -2   0    0.40    0.15
  -5  -2   0    0.59    0.16
   5   2   0    0.36    0.15
   5   2   0    0.76    0.17
   5   2   0    0.39    0.09
   5  -3   0    1.11    0.11
   5  -3   0    1.13    0.17
   5  -3   0    0.75    0.16
  -5   3   0    1.33    0.18
  -5   3   0    1.04    0.16
   4  -3   0    5.88    0.22
   4  -3   0    5.55    0.25
   4  -3   0    5.91    0.22
   4  -3   0    5.59    0.24
   4  -3   0    4.96    0.24
   4  -3   0    5.57    0.19
  -4   3   0    5.69    0.27
  -4   3   0    5.89    0.22
  -4   3   0    5.57    0.22
  -4   3   0    5.91    0.26
  -4   3   0    5.41    0.26
   3  -3   0    2.05    0.11
   3  -3   0    1.96    0.17
   3  -3   0    1.74    0.10
   3  -3   0    2.21    0.14
   3  -3   0    2.09    0.17
   3  -3   0    1.79    0.14
   3  -3   0    1.96    0.14
   3  -3   0    1.88    0.14
   3  -3   0    1.92    0.13
   3  -3   0    1.89    0.12
   3  -3   0    2.21    0.18
  -3   3   0    1.85    0.12
  -3   3   0    1.89    0.14
  -3   3   0    2.00    0.13
  -3   3   0    1.92    0.14
  -3   3   0    1.76    0.14
  -3   3   0    1.88    0.12
  -3   3   0    2.02    0.17
  -3   3   0    1.89    0.11
  -3   3   0    2.11    0.19
  -3   3   0    1.96    0.14
   2  -3   0   43.00    1.01
   2  -3   0   40.91    1.11
   2  -3   0   42.74    1.11
   2  -3   0   41.44    0.89
   2  -3   0   42.05    0.95
   2  -3   0   42.27    1.06
   2  -3   0   41.59    1.04
   2  -3   0   42.35    0.95
   2  -3   0   41.67    1.06
   2  -3   0   41.30    0.99
   2  -3   0   35.24    1.25
   2  -3   0   41.88    1.25
  -2   3   0   41.91    0.95
  -2   3   0   42.06    1.06
  -2   3   0   42.39    1.04
  -2   3   0   42.89    1.26
  -2   3   0   41.92    1.06
  -2   3   0   41.87    1.25
  -2   3   0   42.39    1.11
  -2   3   0   41.00    0.95
  -2   3   0   40.73    0.99
  -2   3   0   42.09    1.01
   1  -3   0  123.69    2.60
   1  -3   0  126.60    3.21
   1  -3   0  120.79    3.02
   1  -3   0  124.86    3.08
   1  -3   0  128.21    3.02
   1  -3   0  124.79    2.77
   1  -3   0  126.63    2.77
   1  -3   0  127.24    3.08
   1  -3   0  123.11    3.64
   1  -3   0  124.95    3.21
   1  -3   0  125.29    2.86
   1  -3   0  125.74    3.64
  -1   3   0  126.27    3.64
  -1   3   0  123.79    3.21
  -1   3   0  128.15    3.02
  -1   3   0  128.40    3.08
  -1   3   0  126.62    2.77
  -1   3   0  124.61    3.64
  -1   3   0  123.92    2.60
  -1   3   0  126.66    3.08
   0  -3   0  169.07    4.16
   0  -3   0  164.54    4.91
   0  -3   0  165.41    3.73
   0  -3   0  173.29    4.09
   0  -3   0  169.76    4.35
   0  -3   0  170.22    3.73
   0  -3   0  171.01    4.07
   0  -3   0  176.35    4.16
   0  -3   0  170.87    4.90
   0  -3   0  171.38    3.52
   0  -3   0  169.73    4.33
   0   3   0  163.18    4.16
   0   3   0  168.69    4.90
   0   3   0  170.30    4.07
   0   3   0  173.00    4.12
   0   3   0  167.44    4.35
   0   3   0  168.84    3.73
   0   3   0  174.04    4.17
   0   3   0  163.02    4.91
   0   3   0  169.54    4.33
   0   3   0  174.26    4.08
  -1  -3   0   15.55    0.51
  -1  -3   0   16.80    0.44
  -1  -3   0   16.72    0.52
  -1  -3   0   15.78    0.46
  -1  -3   0   16.49    0.43
  -1  -3   0   16.33    0.43
  -1  -3   0   16.52    0.39
  -1  -3   0   15.98    0.46
  -1  -3   0   15.88    0.44
  -1  -3   0   16.62    0.46
   1   3   0   16.30    0.39
   1   3   0   15.82    0.43
   1   3   0   16.56    0.43
   1   3   0   17.00    0.44
   1   3   0   15.88    0.52
   1   3   0   17.03    0.52
   1   3   0   16.18    0.36
   1   3   0   16.69    0.46
   1   3   0   16.46    0.44
  -2  -3   0    2.57    0.13
  -2  -3   0    2.39    0.14
  -2  -3   0    2.42    0.15
  -2  -3   0    2.43    0.13
  -2  -3   0    2.65    0.14
  -2  -3   0    2.53    0.13
  -2  -3   0    2.83    0.11
   2   3   0    2.69    0.14
   2   3   0    2.49    0.11
   2   3   0    2.67    0.14
   2   3   0    2.31    0.13
   2   3   0    2.52    0.10
   2   3   0    2.70    0.16
   2   3   0    2.62    0.14
   2   3   0    2.58    0.14
   2   3   0    2.53    0.13
   2   3   0    2.50    0.15
  -3  -3   0    9.13    0.33
  -3  -3   0    8.55    0.28
  -3  -3   0    8.17    0.35
  -3  -3   0    8.90    0.27
  -3  -3   0    7.52    0.35
  -3  -3   0    8.39    0.29
  -3  -3   0    8.59    0.32
  -3  -3   0    8.29    0.30
  -3  -3   0    8.67    0.29
   3   3   0    8.55    0.36
   3   3   0    8.44    0.26
   3   3   0    9.09    0.32
   3   3   0    8.77    0.36
   3   3   0    9.13    0.31
   3   3   0    8.77    0.32
   3   3   0    8.44    0.29
   3   3   0    8.71    0.31
   3   3   0    8.46    0.32
   3   3   0    8.57    0.23
  -4  -3   0    4.30    0.24
  -4  -3   0    4.46    0.23
  -4  -3   0    4.60    0.21
  -4  -3   0    4.40    0.24
   4   3   0    4.28    0.16
   4   3   0    4.37    0.24
   4   3   0    4.44    0.25
  -5  -3   0    0.15    0.15
  -5  -3   0    0.10    0.13
   5   3   0    0.21    0.15
   5   3   0    0.14    0.15
   5  -4   0    1.37    0.18
   5  -4   0    1.29    0.18
   5  -4   0    1.44    0.12
  -5   4   0    1.77    0.19
  -5   4   0    1.52    0.18
   4  -4   0    3.81    0.20
   4  -4   0    4.13    0.22
   4  -4   0    4.16    0.23
   4  -4   0    3.84    0.16
   4  -4   0    4.15    0.19
  -4   4   0    4.01    0.22
  -4   4   0    4.38    0.22
  -4   4   0    4.35    0.19
  -4   4   0    3.86    0.18
   3  -4   0    0.10    0.09
   3  -4   0    0.42    0.13
   3  -4   0    0.13    0.07
   3  -4   0    0.12    0.07
   3  -4   0    0.09    0.07
   3  -4   0    0.10    0.06
   3  -4   0    0.12    0.08
   3  -4   0    0.01    0.08
  -3   4   0   -0.11    0.10
  -3   4   0   -0.02    0.06
  -3   4   0    0.02    0.08
  -3   4   0    0.01    0.05
  -3   4   0   -0.07    0.07
  -3   4   0    0.08    0.05
  -3   4   0   -0.03    0.09
  -3   4   0    0.09    0.08
  -3   4   0    0.10    0.08
  -3   4   0    0.05    0.08
   2  -4   0   18.99    0.47
   2  -4   0   19.07    0.52
   2  -4   0   18.55    0.51
   2  -4   0   19.14    0.54
   2  -4   0   18.48    0.61
   2  -4   0   19.43    0.55
   2  -4   0   19.04    0.61
   2  -4   0   18.79    0.43
   2  -4   0   18.79    0.48
   2  -4   0   19.02    0.46
  -2   4   0   19.18    0.48
  -2   4   0   19.32    0.46
  -2   4   0   19.33    0.52
  -2   4   0   19.14    0.55
  -2   4   0   19.36    0.48
  -2   4   0   18.82    0.62
  -2   4   0   19.36    0.62
  -2   4   0   19.07    0.52
  -2   4   0   18.47    0.51
   1  -4   0   49.14    1.10
   1  -4   0   49.72    1.45
   1  -4   0   49.93    1.10
   1  -4   0   48.46    1.28
   1  -4   0   49.39    1.28
   1  -4   0   51.07    1.23
   1  -4   0   48.46    1.44
   1  -4   0   48.67    1.03
   1  -4   0   48.16    1.23
   1  -4   0   48.00    1.20
  -1   4   0   49.60    1.28
  -1   4   0   49.65    1.23
  -1   4   0   42.65    1.28
  -1   4   0   48.23    1.45
  -1   4   0   49.38    1.23
  -1   4   0   49.65    1.45
  -1   4   0   49.45    1.10
  -1   4   0   48.20    1.20
   0  -4   0    5.89    0.23
   0  -4   0    6.33    0.22
   0  -4   0    6.01    0.15
   0  -4   0    6.58    0.23
   0  -4   0    6.08    0.22
   0  -4   0    6.50    0.24
   0  -4   0    6.81    0.23
   0  -4   0    6.15    0.18
   0  -4   0    6.36    0.25
   0  -4   0    6.39    0.18
   0   4   0    6.16    0.17
   0   4   0    6.07    0.19
   0   4   0    6.58    0.24
   0   4   0    6.04    0.20
   0   4   0    6.59    0.24
   0   4   0    6.30    0.22
   0   4   0    6.80    0.23
   0   4   0    6.05    0.21
   0   4   0    5.23    0.25
  -1  -4   0   25.65    0.72
  -1  -4   0   27.53    0.81
  -1  -4   0   26.47    0.67
  -1  -4   0   25.96    0.69
  -1  -4   0   25.47    0.67
  -1  -4   0   26.75    0.62
  -1  -4   0   26.97    0.72
  -1  -4   0   26.59    0.81
  -1  -4   0   25.57    0.69
   1   4   0   27.09    0.69
   1   4   0   25.08    0.67
   1   4   0   26.26    0.81
   1   4   0   26.27    0.69
   1   4   0   24.78    0.72
   1   4   0   27.02    0.69
   1   4   0   26.08    0.67
   1   4   0   25.90    0.56
   1   4   0   26.41    0.61
   1   4   0   25.71    0.81
  -2  -4   0   16.23    0.45
  -2  -4   0   15.93    0.45
  -2  -4   0   15.76    0.54
  -2  -4   0   16.68    0.41
  -2  -4   0   16.05    0.49
  -2  -4   0   16.66    0.49
  -2  -4   0   16.79    0.47
   2   4   0   15.64    0.45
   2   4   0   15.40    0.48
   2   4   0   16.83    0.49
   2   4   0   15.93    0.55
   2   4   0   16.22    0.37
   2   4   0   16.58    0.47
   2   4   0   16.24    0.47
   2   4   0   16.39    0.45
   2   4   0   16.29    0.55
  -3  -4   0    8.55    0.27
  -3  -4   0    8.47    0.32
  -3  -4   0    9.39    0.38
  -3  -4   0    8.18    0.29
  -3  -4   0    8.05    0.30
  -3  -4   0    8.51    0.30
  -3  -4   0    8.10    0.31
   3   4   0    8.48    0.31
   3   4   0    8.74    0.31
   3   4   0    8.71    0.30
   3   4   0    8.70    0.36
   3   4   0    8.41    0.32
   3   4   0    8.35    0.36
   3   4   0    8.34    0.23
   3   4   0    8.16    0.31
  -4  -4   0    0.07    0.11
  -4  -4   0   -0.01    0.11
  -4  -4   0   -0.07    0.11
   4   4   0   -0.04    0.11
   4   4   0    0.00    0.07
   4   4   0    0.05    0.12
  -5  -4   0    1.23    0.18
  -5  -4   0    1.16    0.19
   5   4   0    1.38    0.19
   5   4   0    1.35    0.19
   5  -5   0    0.62    0.16
   5  -5   0    0.67    0.11
   5  -5   0    0.51    0.16
  -5   5   0    0.63    0.16
  -5   5   0    0.64    0.16
   4  -5   0    4.76    0.18
   4  -5   0    4.23    0.25
   4  -5   0    4.39    0.25
   4  -5   0    4.71    0.22
  -4   5   0    5.06    0.20
  -4   5   0    4.09    0.20
  -4   5   0    4.37    0.24
  -4   5   0    4.99    0.24
   3  -5   0   29.33    0.69
   3  -5   0   28.92    0.77
   3  -5   0   28.29    0.63
   3  -5   0   28.19    0.81
   3  -5   0   27.03    0.77
   3  -5   0   27.32    0.72
   3  -5   0   29.08    0.92
   3  -5   0   29.18    0.81
   3  -5   0   28.74    0.69
  -3   5   0   27.69    0.78
  -3   5   0   28.69    0.92
  -3   5   0   27.81    0.68
  -3   5   0   28.24    0.81
  -3   5   0   27.97    0.76
  -3   5   0   28.02    0.72
  -3   5   0   28.10    0.72
  -3   5   0   28.53    0.81
  -3   5   0   28.01    0.92
   2  -5   0   16.63    0.50
   2  -5   0   17.01    0.50
   2  -5   0   16.78    0.42
   2  -5   0   16.39    0.44
   2  -5   0   17.25    0.42
   2  -5   0   16.67    0.48
   2  -5   0   16.39    0.46
   2  -5   0   16.64    0.57
   2  -5   0   16.32    0.56
   2  -5   0   16.93    0.39
  -2   5   0   16.82    0.47
  -2   5   0   17.28    0.58
  -2   5   0   16.89    0.42
  -2   5   0   16.73    0.56
  -2   5   0   16.37    0.50
  -2   5   0   16.77    0.47
  -2   5   0   17.22    0.43
  -2   5   0   16.49    0.48
   1  -5   0   23.51    0.64
   1  -5   0   23.94    0.75
   1  -5   0   24.08    0.64
   1  -5   0   24.42    0.75
   1  -5   0   23.37    0.67
   1  -5   0   23.41    0.66
   1  -5   0   24.42    0.63
   1  -5   0   23.91    0.52
   1  -5   0   23.76    0.57
   1  -5   0   23.87    0.57
  -1   5   0   23.46    0.64
  -1   5   0   24.33    0.67
  -1   5   0   24.13    0.56
  -1   5   0   24.40    0.62
  -1   5   0   23.76    0.75
  -1   5   0   23.38    0.76
  -1   5   0   24.40    0.67
  -1   5   0   24.63    0.64
   0  -5   0   63.09    1.50
   0  -5   0   59.38    1.49
   0  -5   0   57.18    1.74
   0  -5   0   60.81    1.47
   0  -5   0   57.92    1.33
   0  -5   0   57.07    1.23
   0  -5   0   57.93    1.75
   0  -5   0   62.75    1.57
   0  -5   0   56.48    1.32
   0  -5   0   58.14    1.55
   0   5   0   57.07    1.43
   0   5   0   52.75    1.32
   0   5   0   57.92    1.76
   0   5   0   58.96    1.32
   0   5   0   63.34    1.50
   0   5   0   60.07    1.56
   0   5   0   56.80    1.74
   0   5   0   58.12    1.45
   0   5   0   57.40    1.49
   0   5   0   61.04    1.57
  -1  -5   0   44.48    1.15
  -1  -5   0   45.66    1.35
  -1  -5   0   42.99    1.34
  -1  -5   0   47.43    1.21
  -1  -5   0   44.16    1.02
  -1  -5   0   42.81    1.19
  -1  -5   0   45.13    1.13
  -1  -5   0   43.41    1.11
   1   5   0   45.81    1.36
   1   5   0   44.76    1.02
   1   5   0   42.58    1.20
   1   5   0   43.41    1.11
   1   5   0   44.88    1.15
   1   5   0   44.43    1.35
   1   5   0   44.66    1.12
   1   5   0   47.45    1.16
  -2  -5   0    3.32    0.17
  -2  -5   0    3.34    0.14
  -2  -5   0    3.25    0.19
  -2  -5   0    3.28    0.17
  -2  -5   0    3.27    0.16
  -2  -5   0    3.45    0.17
   2   5   0    3.48    0.14
   2   5   0    3.11    0.16
   2   5   0    3.60    0.18
   2   5   0    3.33    0.12
   2   5   0    3.24    0.17
   2   5   0    3.48    0.17
   2   5   0    3.26    0.20
  -3  -5   0    2.41    0.18
  -3  -5   0    2.94    0.19
  -3  -5   0    2.48    0.17
  -3  -5   0    2.64    0.17
  -3  -5   0    2.72    0.15
   3   5   0    2.46    0.17
   3   5   0    2.65    0.14
   3   5   0    2.57    0.19
   3   5   0    2.75    0.13
   3   5   0    2.66    0.17
   3   5   0    2.66    0.21
  -4  -5   0    0.74    0.14
  -4  -5   0    0.69    0.14
   4   5   0    0.58    0.14
   4   5   0    0.58    0.08
   4   5   0    0.61    0.14
  -5  -5   0    2.25    0.23
  -5  -5   0    1.82    0.21
   5   5   0    2.03    0.22
   5   5   0    2.16    0.23
   5  -6   0    0.62    0.17
   5  -6   0    0.59    0.11
   5  -6   0    0.47    0.16
  -5   6   0    0.64    0.16
  -5   6   0    0.71    0.16
   4  -6   0   23.75    0.69
   4  -6   0   22.24    0.64
   4  -6   0   23.50    0.55
   4  -6   0   22.93    0.69
  -4   6   0   22.90    0.69
  -4   6   0   23.55    0.62
  -4   6   0   23.26    0.60
  -4   6   0   24.01    0.68
   3  -6   0    0.53    0.07
   3  -6   0    0.52    0.09
   3  -6   0    0.49    0.11
   3  -6   0    0.40    0.10
   3  -6   0    0.52    0.10
   3  -6   0    0.41    0.10
   3  -6   0    0.44    0.09
   3  -6   0    0.53    0.09
  -3   6   0    0.39    0.11
  -3   6   0    0.40    0.08
  -3   6   0    0.45    0.12
  -3   6   0    0.34    0.10
  -3   6   0    0.32    0.10
  -3   6   0    0.39    0.08
  -3   6   0    0.39    0.10
  -3   6   0    0.39    0.07
  -3   6   0    0.51    0.14
   2  -6   0    3.56    0.18
   2  -6   0    4.00    0.15
   2  -6   0    3.71    0.18
   2  -6   0    3.52    0.15
   2  -6   0    3.63    0.18
   2  -6   0    3.43    0.15
   2  -6   0    3.23    0.23
   2  -6   0    3.63    0.13
   2  -6   0    3.73    0.18
  -2   6   0    3.67    0.23
  -2   6   0    3.47    0.14
  -2   6   0    3.72    0.21
  -2   6   0    3.46    0.18
  -2   6   0    3.84    0.18
  -2   6   0    3.27    0.14
  -2   6   0    3.66    0.13
  -2   6   0    3.60    0.17
   1  -6   0   26.71    0.69
   1  -6   0   25.99    0.81
   1  -6   0   26.32    0.73
   1  -6   0   25.99    0.62
   1  -6   0   25.66    0.82
   1  -6   0   26.14    0.70
   1  -6   0   25.44    0.72
   1  -6   0   25.70    0.62
  -1   6   0   25.95    0.70
  -1   6   0   24.89    0.68
  -1   6   0   26.04    0.82
  -1   6   0   25.29    0.72
  -1   6   0   25.53    0.83
  -1   6   0   25.64    0.62
  -1   6   0   25.62    0.74
  -1   6   0   25.90    0.70
  -1   6   0   25.75    0.61
   0  -6   0   22.66    0.56
   0  -6   0   22.75    0.74
   0  -6   0   23.66    0.64
   0  -6   0   22.48    0.55
   0  -6   0   21.91    0.51
   0  -6   0   22.35    0.73
   0  -6   0   23.26    0.63
   0  -6   0   24.75    0.68
   0  -6   0   22.62    0.66
   0   6   0   23.62    0.67
   0   6   0   22.44    0.55
   0   6   0   24.45    0.65
   0   6   0   22.12    0.55
   0   6   0   22.40    0.61
   0   6   0   22.83    0.75
   0   6   0   23.05    0.68
   0   6   0   21.89    0.59
   0   6   0   22.68    0.64
   0   6   0   22.96    0.74
  -1  -6   0    2.97    0.11
  -1  -6   0    2.86    0.18
  -1  -6   0    2.95    0.17
  -1  -6   0    2.89    0.17
  -1  -6   0    2.90    0.17
  -1  -6   0    3.06    0.13
  -1  -6   0    2.98    0.17
   1   6   0    3.13    0.13
   1   6   0    3.06    0.20
   1   6   0    2.83    0.15
   1   6   0    2.52    0.20
   1   6   0    3.00    0.17
   1   6   0    2.84    0.17
   1   6   0    3.14    0.15
   1   6   0    2.75    0.16
   1   6   0    2.98    0.16
   1   6   0    2.98    0.13
  -2  -6   0    7.04    0.28
  -2  -6   0    6.55    0.27
  -2  -6   0    7.19    0.23
  -2  -6   0    6.87    0.26
  -2  -6   0    6.78    0.25
  -2  -6   0    6.92    0.28
   2   6   0    6.89    0.32
   2   6   0    6.86    0.22
   2   6   0    6.72    0.25
   2   6   0    6.87    0.22
   2   6   0    6.90    0.27
   2   6   0    7.13    0.28
   2   6   0    6.61    0.25
   2   6   0    6.85    0.31
   2   6   0    6.75    0.27
  -3  -6   0    2.75    0.19
  -3  -6   0    2.33    0.18
  -3  -6   0    2.77    0.16
  -3  -6   0    2.49    0.18
   3   6   0    2.70    0.12
   3   6   0    2.64    0.16
   3   6   0    2.52    0.20
   3   6   0    2.54    0.18
   3   6   0    2.45    0.19
  -4  -6   0    1.28    0.16
  -4  -6   0    1.11    0.16
   4   6   0    0.86    0.16
   4   6   0    1.11    0.16
   5  -7   0    1.09    0.19
   5  -7   0    1.18    0.19
   5  -7   0    1.11    0.13
  -5   7   0    1.54    0.19
  -5   7   0    1.33    0.20
   4  -7   0    0.06    0.10
   4  -7   0    0.05    0.11
   4  -7   0   -0.02    0.08
   4  -7   0   -0.05    0.12
  -4   7   0    0.07    0.12
  -4   7   0    0.15    0.12
   3  -7   0    0.58    0.11
   3  -7   0    0.50    0.11
   3  -7   0    0.70    0.12
   3  -7   0    0.50    0.10
   3  -7   0    0.71    0.10
   3  -7   0    0.45    0.08
   3  -7   0    0.46    0.09
  -3   7   0    0.25    0.10
  -3   7   0    0.47    0.09
  -3   7   0    0.58    0.07
  -3   7   0    0.48    0.13
  -3   7   0    0.42    0.11
  -3   7   0    0.40    0.11
  -3   7   0    0.44    0.09
   2  -7   0    6.90    0.25
   2  -7   0    6.80    0.27
   2  -7   0    6.51    0.19
   2  -7   0    6.84    0.25
   2  -7   0    6.73    0.23
   2  -7   0    6.45    0.27
   2  -7   0    6.76    0.32
   2  -7   0    6.54    0.22
   2  -7   0    6.98    0.24
  -2   7   0    6.53    0.25
  -2   7   0    6.57    0.30
  -2   7   0    6.80    0.22
  -2   7   0    7.03    0.22
  -2   7   0    6.24    0.32
  -2   7   0    6.88    0.25
  -2   7   0    6.54    0.21
  -2   7   0    6.95    0.28
   1  -7   0   12.56    0.41
   1  -7   0   12.98    0.42
   1  -7   0   13.78    0.45
   1  -7   0   13.48    0.32
   1  -7   0   13.29    0.36
   1  -7   0   13.43    0.35
   1  -7   0   12.91    0.48
   1  -7   0   13.52    0.42
  -1   7   0   12.27    0.51
  -1   7   0   13.64    0.40
  -1   7   0   13.59    0.42
  -1   7   0   13.25    0.47
  -1   7   0   13.83    0.40
  -1   7   0   13.47    0.35
  -1   7   0   13.37    0.43
  -1   7   0   13.37    0.42
  -1   7   0   13.26    0.36
  -1   7   0   13.69    0.45
   0  -7   0    0.30    0.08
   0  -7   0    0.38    0.07
   0  -7   0    0.22    0.06
   0  -7   0    0.26    0.05
   0  -7   0    0.25    0.09
   0  -7   0    0.28    0.09
   0  -7   0    0.24    0.08
   0  -7   0    0.17    0.08
   0   7   0    0.22    0.08
   0   7   0    0.15    0.08
   0   7   0    0.11    0.09
   0   7   0    0.35    0.09
   0   7   0    0.31    0.09
   0   7   0    0.31    0.07
   0   7   0    0.28    0.07
   0   7   0    0.34    0.12
   0   7   0    0.26    0.06
   0   7   0    0.33    0.10
  -1  -7   0   12.68    0.47
  -1  -7   0   12.81    0.35
  -1  -7   0   12.43    0.42
  -1  -7   0   13.65    0.43
  -1  -7   0   12.96    0.31
  -1  -7   0   12.29    0.44
  -1  -7   0   12.61    0.42
   1   7   0   12.84    0.38
   1   7   0   13.39    0.35
   1   7   0   13.12    0.35
   1   7   0   12.79    0.47
   1   7   0   12.78    0.46
   1   7   0   12.89    0.39
   1   7   0   12.25    0.48
   1   7   0   11.96    0.41
   1   7   0   12.21    0.43
  -2  -7   0   10.79    0.38
  -2  -7   0   10.76    0.32
  -2  -7   0   10.27    0.37
  -2  -7   0   10.78    0.39
  -2  -7   0   10.06    0.36
  -2  -7   0   11.08    0.36
   2   7   0   10.91    0.39
   2   7   0   10.13    0.43
   2   7   0   10.49    0.31
   2   7   0   10.80    0.44
   2   7   0   10.28    0.31
   2   7   0   10.87    0.37
   2   7   0   11.13    0.38
  -3  -7   0    0.86    0.14
  -3  -7   0    0.83    0.14
  -3  -7   0    0.79    0.13
   3   7   0    0.97    0.11
   3   7   0    0.71    0.14
   3   7   0    0.67    0.14
   3   7   0    0.71    0.13
  -4  -7   0    0.17    0.14
  -4  -7   0   -0.21    0.12
   4   7   0   -0.05    0.13
   4   7   0    0.14    0.14
   5  -8   0    0.32    0.16
   5  -8   0    0.04    0.16
   5  -8   0    0.29    0.11
  -5   8   0    0.64    0.18
  -5   8   0    0.32    0.17
   4  -8   0    2.93    0.22
   4  -8   0    2.61    0.16
   4  -8   0    2.85    0.21
  -4   8   0    3.19    0.23
  -4   8   0    2.79    0.22
   3  -8   0    6.75    0.24
   3  -8   0    6.46    0.21
   3  -8   0    6.49    0.28
   3  -8   0    5.59    0.26
   3  -8   0    6.54    0.25
   3  -8   0    6.30    0.25
  -3   8   0    5.82    0.27
  -3   8   0    6.11    0.29
  -3   8   0    6.24    0.28
  -3   8   0    6.57    0.23
  -3   8   0    6.45    0.21
   2  -8   0    4.56    0.20
   2  -8   0    4.72    0.22
   2  -8   0    4.96    0.23
   2  -8   0    4.42    0.22
   2  -8   0    5.10    0.19
   2  -8   0    4.55    0.22
   2  -8   0    4.61    0.16
   2  -8   0    4.91    0.20
  -2   8   0    4.53    0.21
  -2   8   0    4.67    0.22
  -2   8   0    4.78    0.19
  -2   8   0    4.67    0.18
  -2   8   0    3.51    0.20
  -2   8   0    4.82    0.25
  -2   8   0    5.03    0.27
  -2   8   0    4.20    0.30
   1  -8   0    1.45    0.17
   1  -8   0    1.65    0.12
   1  -8   0    1.68    0.11
   1  -8   0    1.44    0.14
   1  -8   0    1.66    0.17
   1  -8   0    1.54    0.15
   1  -8   0    1.59    0.14
   1  -8   0    1.63    0.12
  -1   8   0    1.70    0.14
  -1   8   0    1.13    0.14
  -1   8   0    1.57    0.15
  -1   8   0    1.19    0.13
  -1   8   0    1.57    0.11
  -1   8   0    1.59    0.19
  -1   8   0    1.58    0.11
  -1   8   0    1.62    0.15
  -1   8   0    1.49    0.11
  -1   8   0    1.47    0.13
   0  -8   0   18.85    0.49
   0  -8   0   18.78    0.49
   0  -8   0   18.50    0.57
   0  -8   0   18.93    0.44
   0  -8   0   18.92    0.65
   0  -8   0   20.53    0.61
   0  -8   0   18.55    0.58
   0  -8   0   19.83    0.56
   0   8   0   19.12    0.48
   0   8   0   18.57    0.56
   0   8   0   18.86    0.60
   0   8   0   18.72    0.67
   0   8   0   19.50    0.49
   0   8   0   18.51    0.52
   0   8   0   19.16    0.66
   0   8   0   20.13    0.55
   0   8   0   20.28    0.60
  -1  -8   0    7.68    0.33
  -1  -8   0    8.25    0.22
  -1  -8   0    7.29    0.33
  -1  -8   0    7.84    0.35
  -1  -8   0    7.19    0.33
  -1  -8   0    8.14    0.33
  -1  -8   0    8.29    0.26
   1   8   0    7.70    0.33
   1   8   0    7.99    0.33
   1   8   0    8.44    0.26
   1   8   0    8.09    0.30
   1   8   0    8.24    0.38
   1   8   0    8.09    0.36
   1   8   0    7.84    0.28
   1   8   0    8.57    0.25
   1   8   0    6.70    0.34
  -2  -8   0    9.82    0.36
  -2  -8   0    8.62    0.35
  -2  -8   0    9.15    0.26
  -2  -8   0    9.21    0.30
   2   8   0    8.88    0.34
   2   8   0    9.06    0.38
   2   8   0    9.42    0.36
   2   8   0    9.46    0.29
   2   8   0    9.67    0.29
  -3  -8   0    2.52    0.21
  -3  -8   0    2.12    0.14
  -3  -8   0    2.83    0.22
   3   8   0    2.38    0.21
   3   8   0    2.44    0.21
   3   8   0    2.68    0.21
  -4  -8   0    1.56    0.20
  -4  -8   0    1.55    0.20
  -4  -8   0    1.67    0.13
   4   8   0    1.49    0.19
   4   8   0    1.27    0.19
   4   8   0    1.61    0.20
   4  -9   0    6.15    0.30
   4  -9   0    6.31    0.23
   4  -9   0    6.41    0.30
  -4   9   0    6.13    0.31
  -4   9   0    6.05    0.30
   3  -9   0    0.71    0.10
   3  -9   0    0.58    0.13
   3  -9   0    0.73    0.13
   3  -9   0    0.79    0.14
  -3   9   0    0.51    0.13
  -3   9   0    0.62    0.14
   2  -9   0    5.15    0.21
   2  -9   0    5.54    0.27
   2  -9   0    5.41    0.25
   2  -9   0    5.07    0.23
   2  -9   0    4.91    0.18
   2  -9   0    5.29    0.23
  -2   9   0    5.36    0.21
  -2   9   0    5.14    0.25
  -2   9   0    5.48    0.27
  -2   9   0    5.28    0.20
  -2   9   0    5.85    0.26
  -2   9   0    5.31    0.30
   1  -9   0    7.93    0.25
   1  -9   0    8.00    0.32
   1  -9   0    7.68    0.26
   1  -9   0    7.45    0.34
   1  -9   0    7.67    0.23
   1  -9   0    7.00    0.30
   1  -9   0    6.64    0.32
  -1   9   0    7.38    0.29
  -1   9   0    8.13    0.40
  -1   9   0    7.20    0.24
  -1   9   0    7.78    0.32
  -1   9   0    6.57    0.32
  -1   9   0    7.56    0.25
  -1   9   0    7.64    0.36
  -1   9   0    7.84    0.30
  -1   9   0    7.40    0.31
  -1   9   0    7.75    0.26
   0  -9   0   10.54    0.39
   0  -9   0   10.98    0.33
   0  -9   0   10.53    0.37
   0  -9   0   11.02    0.32
   0  -9   0   11.31    0.38
   0  -9   0   11.06    0.40
   0  -9   0   10.59    0.28
   0   9   0   10.23    0.43
   0   9   0   10.74    0.40
   0   9   0   11.10    0.41
   0   9   0   10.50    0.46
   0   9   0   10.69    0.37
   0   9   0   10.81    0.31
   0   9   0   10.88    0.34
   0   9   0   11.22    0.39
   0   9   0   11.17    0.31
  -1  -9   0    0.07    0.06
  -1  -9   0    0.07    0.11
  -1  -9   0    0.30    0.10
  -1  -9   0    0.04    0.12
  -1  -9   0    0.12    0.08
   1   9   0   -0.05    0.09
   1   9   0    0.13    0.11
   1   9   0    0.11    0.08
   1   9   0    0.20    0.08
   1   9   0    0.05    0.10
   1   9   0    0.11    0.12
   1   9   0    0.12    0.13
   1   9   0    0.16    0.09
  -2  -9   0    6.71    0.33
  -2  -9   0    5.90    0.32
  -2  -9   0    6.33    0.21
   2   9   0    6.09    0.31
   2   9   0    6.79    0.31
  -3  -9   0    1.44    0.19
  -3  -9   0    1.09    0.11
  -3  -9   0    1.28    0.18
   3   9   0    1.10    0.17
   3   9   0    1.00    0.17
   4 -10   0    0.05    0.14
   4 -10   0   -0.11    0.14
   4 -10   0   -0.01    0.10
  -4  10   0    0.06    0.14
  -4  10   0    0.12    0.15
   3 -10   0    2.34    0.16
   3 -10   0    2.51    0.19
   3 -10   0    2.49    0.21
   3 -10   0    2.80    0.22
  -3  10   0    2.47    0.20
  -3  10   0    2.85    0.22
   2 -10   0    4.99    0.22
   2 -10   0    4.37    0.24
   2 -10   0    4.81    0.28
   2 -10   0    4.70    0.26
   2 -10   0    4.62    0.18
  -2  10   0    4.72    0.20
  -2  10   0    5.07    0.20
  -2  10   0    4.72    0.25
  -2  10   0    5.01    0.25
  -2  10   0    4.87    0.28
   1 -10   0    2.61    0.20
   1 -10   0    2.85    0.16
   1 -10   0    2.52    0.21
   1 -10   0    2.95    0.14
   1 -10   0    2.84    0.17
  -1  10   0    3.07    0.17
  -1  10   0    2.95    0.21
  -1  10   0    2.57    0.20
  -1  10   0    3.15    0.21
  -1  10   0    2.78    0.24
  -1  10   0    2.68    0.23
  -1  10   0    3.04    0.16
   0 -10   0    0.81    0.13
   0 -10   0    0.80    0.11
   0 -10   0    0.77    0.09
   0 -10   0    0.89    0.11
   0 -10   0    0.99    0.14
   0  10   0    0.87    0.10
   0  10   0    0.82    0.14
   0  10   0    0.89    0.16
   0  10   0    0.75    0.13
   0  10   0    0.96    0.11
   0  10   0    0.77    0.13
   0  10   0    0.79    0.10
  -1 -10   0   13.04    0.34
  -1 -10   0   12.08    0.46
  -1 -10   0   13.33    0.47
   1  10   0   12.47    0.46
   1  10   0   13.40    0.38
   1  10   0   14.25    0.45
   1  10   0   13.99    0.51
  -2 -10   0    4.51    0.32
  -2 -10   0    4.64    0.31
  -2 -10   0    5.08    0.19
   2  10   0    4.48    0.26
   2  10   0    4.22    0.28
  -3 -10   0    0.63    0.10
  -3 -10   0    0.46    0.17
  -3 -10   0    0.50    0.17
   3  10   0    0.71    0.18
   3  10   0    0.43    0.17
   4 -11   0    1.50    0.21
   4 -11   0    1.39    0.15
   4 -11   0    1.70    0.23
  -4  11   0    1.50    0.20
  -4  11   0    1.37    0.21
   3 -11   0    2.28    0.23
   3 -11   0    2.38    0.22
   3 -11   0    2.24    0.15
  -3  11   0    2.04    0.21
  -3  11   0    1.83    0.21
   2 -11   0    0.16    0.12
   2 -11   0    0.23    0.08
   2 -11   0    0.13    0.13
   2 -11   0   -0.07    0.14
  -2  11   0   -0.11    0.12
  -2  11   0    0.43    0.15
   1 -11   0    4.97    0.29
   1 -11   0    4.89    0.18
   1 -11   0    4.46    0.26
  -1  11   0    5.26    0.27
  -1  11   0    5.15    0.28
  -1  11   0    4.93    0.22
   0 -11   0    0.36    0.13
   0 -11   0    0.26    0.12
   0 -11   0    0.44    0.08
   0  11   0    0.22    0.12
   0  11   0    0.41    0.13
  -1 -11   0    8.19    0.25
  -1 -11   0    8.78    0.37
  -1 -11   0    7.94    0.35
   1  11   0    8.36    0.34
   1  11   0    8.78    0.36
  -2 -11   0    0.14    0.09
  -2 -11   0    0.06    0.17
  -2 -11   0    0.12    0.16
   2  11   0   -0.18    0.13
   2  11   0    0.00    0.15
  -3 -11   0    0.29    0.18
  -3 -11   0    0.31    0.20
  -3 -11   0    0.55    0.11
   3  11   0    0.68    0.18
   3  11   0    0.41    0.18
   3 -12   0   -0.11    0.16
   3 -12   0    0.05    0.15
   3 -12   0   -0.04    0.10
  -3  12   0    0.11    0.15
  -3  12   0    0.14    0.15
   2 -12   0    0.97    0.18
   2 -12   0    0.83    0.20
   2 -12   0    1.07    0.11
  -2  12   0    0.78    0.17
  -2  12   0    1.08    0.18
   1 -12   0    1.33    0.11
   1 -12   0    1.44    0.20
   1 -12   0    1.49    0.18
  -1  12   0    1.65    0.19
  -1  12   0    1.61    0.20
   0 -12   0    3.81    0.24
   0 -12   0    3.97    0.26
   0 -12   0    3.83    0.18
   0  12   0    3.90    0.25
   0  12   0    4.08    0.26
  -1 -12   0    2.08    0.14
  -1 -12   0    2.46    0.22
  -1 -12   0    2.05    0.20
   1  12   0    2.31    0.21
   1  12   0    2.10    0.20
  -2 -12   0    0.56    0.11
  -2 -12   0    0.75    0.20
  -2 -12   0    0.91    0.19
   2  12   0    0.76    0.17
   2  12   0    0.79    0.19
   2 -13   0    1.35    0.22
   2 -13   0    1.30    0.13
   2 -13   0    1.14    0.20
  -2  13   0    1.16    0.20
  -2  13   0    1.16    0.19
   1 -13   0    2.18    0.14
   1 -13   0    2.30    0.22
   1 -13   0    2.54    0.24
  -1  13   0    2.50    0.22
  -1  13   0    2.10    0.21
   0 -13   0    0.22    0.13
   0 -13   0    0.07    0.14
   0 -13   0    0.00    0.09
   0  13   0    0.07    0.14
   0  13   0    0.11    0.14
  -1 -13   0   12.41    0.48
  -1 -13   0   11.54    0.46
  -1 -13   0   12.14    0.35
   1  13   0   11.91    0.47
   1  13   0   13.82    0.48
   1 -14   0    0.42    0.11
   1 -14   0    0.33    0.15
   1 -14   0    0.50    0.18
  -1  14   0    0.11    0.16
  -1  14   0    0.21    0.16
   0 -14   0    1.38    0.20
   0 -14   0    1.54    0.20
   0 -14   0    1.35    0.13
   0  14   0    1.32    0.20
   0  14   0    1.53    0.20
   0  14   0    1.59    0.20
   0  14  -1    0.50    0.16
   0  14  -1    0.53    0.16
   0  14  -1    0.58    0.16
   0 -14   1    0.39    0.11
   0 -14   1    0.83    0.17
  -1  14  -1    0.46    0.16
  -1  14  -1    0.76    0.18
   1 -14   1    0.52    0.11
   1 -14   1    0.71    0.18
   1  13  -1    0.57    0.16
   1  13  -1    0.53    0.16
  -1 -13   1    0.78    0.17
  -1 -13   1    0.70    0.17
  -1 -13   1    0.62    0.11
   0  13  -1    1.80    0.20
   0  13  -1    1.90    0.19
   0  13  -1    1.83    0.20
   0 -13   1    2.06    0.20
   0 -13   1    1.60    0.13
   0 -13   1    1.80    0.20
  -1  13  -1    0.27    0.14
  -1  13  -1    0.32    0.15
   1 -13   1    0.29    0.16
   1 -13   1    0.22    0.14
   1 -13   1    0.26    0.09
  -2  13  -1    1.71    0.21
  -2  13  -1    2.03    0.21
   2 -13   1    1.66    0.21
   2 -13   1    1.77    0.23
   2 -13   1    1.75    0.14
   2  12  -1    4.04    0.29
   2  12  -1    3.71    0.27
  -2 -12   1    4.28    0.33
  -2 -12   1    4.12    0.19
  -2 -12   1    3.93    0.29
   1  12  -1    0.12    0.13
   1  12  -1    0.13    0.13
  -1 -12   1   -0.04    0.08
  -1 -12   1    0.21    0.13
  -1 -12   1    0.31    0.14
   0  12  -1    1.27    0.17
   0  12  -1    1.35    0.17
   0 -12   1    1.29    0.16
   0 -12   1    1.10    0.11
   0 -12   1    1.60    0.17
  -1  12  -1    3.19    0.23
  -1  12  -1    3.09    0.23
   1 -12   1    3.40    0.23
   1 -12   1    3.11    0.24
   1 -12   1    3.05    0.16
  -2  12  -1    1.74    0.20
  -2  12  -1    1.82    0.19
   2 -12   1    1.89    0.14
   2 -12   1    1.75    0.22
   2 -12   1    1.90    0.21
  -3  12  -1    0.16    0.15
  -3  12  -1    0.09    0.14
   3 -12   1   -0.03    0.10
   3 -12   1   -0.13    0.14
   3 -12   1   -0.24    0.14
   3  11  -1    1.08    0.20
   3  11  -1    1.15    0.21
  -3 -11   1    1.24    0.22
  -3 -11   1    1.17    0.12
  -3 -11   1    1.24    0.21
   2  11  -1    0.00    0.13
   2  11  -1    0.03    0.14
  -2 -11   1   -0.10    0.08
  -2 -11   1    0.06    0.17
  -2 -11   1   -0.01    0.15
   1  11  -1    2.91    0.21
   1  11  -1    3.06    0.23
  -1 -11   1    3.22    0.24
  -1 -11   1    2.92    0.22
  -1 -11   1    2.86    0.15
   0  11  -1    4.63    0.22
   0  11  -1    4.81    0.26
   0  11  -1    4.99    0.26
   0  11  -1    4.96    0.27
   0 -11   1    5.24    0.27
   0 -11   1    4.60    0.18
   0 -11   1    4.84    0.22
   0 -11   1    4.65    0.26
  -1  11  -1    1.62    0.18
  -1  11  -1    1.76    0.13
  -1  11  -1    1.68    0.19
  -1  11  -1    1.55    0.17
   1 -11   1    1.66    0.14
   1 -11   1    1.79    0.18
   1 -11   1    1.92    0.13
   1 -11   1    2.09    0.20
  -2  11  -1    1.24    0.16
  -2  11  -1    0.89    0.16
   2 -11   1    0.41    0.15
   2 -11   1    1.02    0.18
   2 -11   1    0.87    0.15
   2 -11   1    0.73    0.10
  -3  11  -1    7.29    0.32
  -3  11  -1    5.83    0.32
   3 -11   1    7.18    0.33
   3 -11   1    5.89    0.23
   3 -11   1    6.90    0.33
  -4  11  -1    5.59    0.32
   4 -11   1    5.43    0.24
   4 -11   1    5.26    0.32
   3  10  -1    2.37    0.23
   3  10  -1    2.91    0.24
  -3 -10   1    3.20    0.26
  -3 -10   1    2.93    0.25
  -3 -10   1    2.95    0.17
   2  10  -1    2.22    0.20
   2  10  -1    1.61    0.20
  -2 -10   1    1.85    0.12
  -2 -10   1    2.44    0.24
  -2 -10   1    2.13    0.22
   1  10  -1    5.53    0.33
   1  10  -1    5.02    0.26
   1  10  -1    5.42    0.27
   1  10  -1    5.61    0.31
  -1 -10   1    5.63    0.28
  -1 -10   1    4.96    0.19
  -1 -10   1    5.70    0.28
   0  10  -1    0.11    0.11
   0  10  -1    0.05    0.08
   0  10  -1   -0.02    0.10
   0  10  -1    0.01    0.10
   0  10  -1    0.17    0.13
   0  10  -1    0.13    0.11
   0  10  -1    0.05    0.07
   0  10  -1    0.04    0.07
   0 -10   1   -0.02    0.10
   0 -10   1    0.14    0.11
   0 -10   1    0.07    0.08
   0 -10   1    0.02    0.08
   0 -10   1    0.05    0.06
  -1  10  -1    3.82    0.26
  -1  10  -1    3.51    0.17
  -1  10  -1    3.70    0.17
  -1  10  -1    3.60    0.22
  -1  10  -1    3.68    0.25
  -1  10  -1    3.30    0.21
  -1  10  -1    3.41    0.17
   1 -10   1    3.82    0.16
   1 -10   1    3.43    0.24
   1 -10   1    3.82    0.19
   1 -10   1    3.84    0.23
   1 -10   1    3.61    0.18
  -2  10  -1    6.63    0.30
  -2  10  -1    7.55    0.30
  -2  10  -1    7.70    0.34
   2 -10   1    7.44    0.24
   2 -10   1    8.07    0.33
   2 -10   1    7.31    0.31
   2 -10   1    7.79    0.27
   2 -10   1    7.47    0.32
  -3  10  -1    3.20    0.22
  -3  10  -1    2.83    0.22
   3 -10   1    3.25    0.17
   3 -10   1    3.31    0.24
   3 -10   1    3.25    0.23
  -4  10  -1    0.24    0.16
  -4  10  -1    0.58    0.16
   4 -10   1    0.21    0.14
   4 -10   1    0.38    0.16
   4 -10   1    0.38    0.11
   4   9  -1    0.32    0.16
   4   9  -1    0.30    0.16
   4   9  -1    0.26    0.16
  -4  -9   1   -0.03    0.15
  -4  -9   1    0.21    0.16
  -4  -9   1    0.15    0.10
   3   9  -1    4.11    0.26
   3   9  -1    3.04    0.24
  -3  -9   1    3.57    0.25
  -3  -9   1    3.79    0.26
   2   9  -1    2.24    0.19
   2   9  -1    2.99    0.24
   2   9  -1    2.48    0.20
  -2  -9   1    2.62    0.14
  -2  -9   1    2.30    0.20
  -2  -9   1    2.72    0.21
   1   9  -1    0.03    0.07
   1   9  -1   -0.02    0.11
   1   9  -1    0.05    0.08
   1   9  -1    0.03    0.07
   1   9  -1    0.07    0.12
   1   9  -1    0.04    0.10
   1   9  -1    0.03    0.09
   1   9  -1    0.03    0.11
  -1  -9   1    0.05    0.08
  -1  -9   1    0.08    0.06
  -1  -9   1    0.03    0.11
  -1  -9   1    0.18    0.12
  -1  -9   1    0.12    0.09
   0   9  -1    6.77    0.35
   0   9  -1    6.23    0.29
   0   9  -1    6.54    0.21
   0   9  -1    6.29    0.27
   0   9  -1    6.31    0.28
   0   9  -1    6.22    0.21
   0   9  -1    6.57    0.26
   0   9  -1    5.90    0.23
   0   9  -1    6.16    0.31
   0  -9   1    6.21    0.27
   0  -9   1    6.82    0.28
   0  -9   1    6.02    0.22
   0  -9   1    6.70    0.29
   0  -9   1    6.35    0.26
   0  -9   1    5.98    0.19
   0  -9   1    6.21    0.23
  -1   9  -1    8.08    0.34
  -1   9  -1    8.24    0.25
  -1   9  -1    8.84    0.37
  -1   9  -1    8.76    0.26
  -1   9  -1    7.39    0.31
  -1   9  -1    9.34    0.44
  -1   9  -1    8.81    0.26
  -1   9  -1    7.20    0.33
  -1   9  -1    8.64    0.30
   1  -9   1    8.22    0.31
   1  -9   1    8.37    0.24
   1  -9   1    8.37    0.32
   1  -9   1    8.84    0.28
   1  -9   1    7.54    0.35
   1  -9   1    7.52    0.32
   1  -9   1    8.25    0.27
  -2   9  -1    0.20    0.10
  -2   9  -1    0.24    0.06
  -2   9  -1    0.32    0.08
  -2   9  -1    0.35    0.12
  -2   9  -1    0.25    0.09
  -2   9  -1    0.33    0.11
  -2   9  -1    0.33    0.13
  -2   9  -1    0.13    0.10
  -2   9  -1    0.15    0.06
   2  -9   1    0.27    0.10
   2  -9   1    0.25    0.11
   2  -9   1    0.42    0.09
   2  -9   1    0.30    0.12
   2  -9   1    0.31    0.08
   2  -9   1    0.30    0.11
  -3   9  -1    0.05    0.12
  -3   9  -1    0.04    0.11
  -3   9  -1    0.16    0.11
   3  -9   1    0.10    0.11
   3  -9   1    0.02    0.12
   3  -9   1    0.07    0.08
   3  -9   1    0.18    0.11
  -4   9  -1    2.10    0.20
  -4   9  -1    1.87    0.20
   4  -9   1    1.92    0.20
   4  -9   1    1.43    0.13
   4  -9   1    1.89    0.20
   4   8  -1    0.26    0.15
   4   8  -1    0.30    0.15
   4   8  -1    0.29    0.16
  -4  -8   1    0.34    0.15
  -4  -8   1    0.40    0.15
   3   8  -1    0.91    0.15
   3   8  -1    1.13    0.16
   3   8  -1    0.87    0.15
  -3  -8   1    0.49    0.13
  -3  -8   1    0.82    0.14
   2   8  -1    0.42    0.12
   2   8  -1    0.54    0.15
   2   8  -1    0.40    0.08
   2   8  -1    0.52    0.12
   2   8  -1    0.68    0.13
   2   8  -1    0.50    0.12
   2   8  -1    0.52    0.09
  -2  -8   1    0.60    0.10
  -2  -8   1    0.48    0.12
  -2  -8   1    0.50    0.11
  -2  -8   1    0.38    0.11
   1   8  -1    9.67    0.38
   1   8  -1    9.76    0.32
   1   8  -1   10.12    0.28
   1   8  -1    9.95    0.34
   1   8  -1    8.21    0.39
   1   8  -1    8.97    0.35
   1   8  -1    9.44    0.42
   1   8  -1    9.90    0.41
   1   8  -1   10.28    0.28
  -1  -8   1   10.49    0.37
  -1  -8   1    9.80    0.37
  -1  -8   1    8.62    0.36
  -1  -8   1    9.38    0.29
  -1  -8   1   10.29    0.26
  -1  -8   1    9.50    0.36
   0   8  -1   12.16    0.38
   0   8  -1   13.04    0.43
   0   8  -1   11.87    0.33
   0   8  -1   12.99    0.44
   0   8  -1   12.32    0.40
   0   8  -1   14.09    0.42
   0   8  -1   12.45    0.49
   0   8  -1   12.28    0.46
   0   8  -1   11.92    0.36
   0   8  -1   12.41    0.33
   0  -8   1   12.10    0.34
   0  -8   1   13.03    0.41
   0  -8   1   12.49    0.35
   0  -8   1   12.58    0.40
   0  -8   1   12.22    0.46
   0  -8   1   12.39    0.41
   0  -8   1   12.64    0.31
   0  -8   1   13.52    0.44
  -1   8  -1    0.36    0.10
  -1   8  -1    0.37    0.07
  -1   8  -1    0.35    0.06
  -1   8  -1    0.28    0.11
  -1   8  -1    0.20    0.09
  -1   8  -1    0.15    0.09
  -1   8  -1    0.22    0.07
  -1   8  -1    0.32    0.10
  -1   8  -1    0.25    0.08
   1  -8   1    0.25    0.07
   1  -8   1    0.16    0.11
   1  -8   1    0.28    0.09
   1  -8   1    0.26    0.10
   1  -8   1    0.28    0.06
   1  -8   1    0.25    0.08
   1  -8   1    0.25    0.08
  -2   8  -1    1.70    0.14
  -2   8  -1    1.84    0.16
  -2   8  -1    1.70    0.09
  -2   8  -1    1.93    0.15
  -2   8  -1    1.66    0.12
  -2   8  -1    1.86    0.12
  -2   8  -1    1.72    0.21
  -2   8  -1    2.25    0.18
  -2   8  -1    1.79    0.17
   2  -8   1    1.75    0.13
   2  -8   1    1.65    0.15
   2  -8   1    1.87    0.13
   2  -8   1    1.78    0.11
   2  -8   1    1.92    0.15
   2  -8   1    1.67    0.14
   2  -8   1    1.88    0.14
   2  -8   1    1.85    0.15
  -3   8  -1   26.65    0.78
  -3   8  -1   29.32    0.77
  -3   8  -1   27.32    0.67
  -3   8  -1   27.17    0.82
  -3   8  -1   27.40    0.68
   3  -8   1   28.72    0.69
   3  -8   1   25.57    0.77
   3  -8   1   27.28    0.77
   3  -8   1   25.68    0.72
   3  -8   1   27.82    0.63
  -4   8  -1    0.89    0.16
  -4   8  -1    1.32    0.16
   4  -8   1    1.38    0.17
   4  -8   1    0.99    0.16
   4  -8   1    1.14    0.12
   4   7  -1    0.38    0.15
   4   7  -1    0.47    0.15
  -4  -7   1    0.52    0.15
  -4  -7   1    0.68    0.15
   3   7  -1    1.16    0.15
   3   7  -1    1.09    0.14
   3   7  -1    1.14    0.14
   3   7  -1    1.40    0.16
  -3  -7   1    1.50    0.15
  -3  -7   1    1.46    0.15
  -3  -7   1    1.57    0.16
   2   7  -1   17.88    0.56
   2   7  -1   17.56    0.45
   2   7  -1   17.62    0.62
   2   7  -1   16.69    0.55
   2   7  -1   17.21    0.44
   2   7  -1   17.03    0.52
   2   7  -1   16.42    0.52
   2   7  -1   18.03    0.51
   2   7  -1   16.95    0.50
   2   7  -1   17.73    0.63
  -2  -7   1   16.27    0.52
  -2  -7   1   17.55    0.54
  -2  -7   1   17.57    0.46
  -2  -7   1   16.45    0.54
  -2  -7   1   16.62    0.50
  -2  -7   1   16.97    0.51
   1   7  -1   14.52    0.37
   1   7  -1   14.09    0.41
   1   7  -1   13.66    0.48
   1   7  -1   13.54    0.45
   1   7  -1   14.11    0.36
   1   7  -1   14.17    0.42
   1   7  -1   14.32    0.51
   1   7  -1   12.54    0.46
   1   7  -1   13.72    0.45
   1   7  -1   14.43    0.51
  -1  -7   1   14.19    0.46
  -1  -7   1   13.87    0.46
  -1  -7   1   14.39    0.46
  -1  -7   1   14.29    0.41
  -1  -7   1   14.91    0.45
  -1  -7   1   14.62    0.50
  -1  -7   1   14.09    0.38
   0   7  -1    1.93    0.16
   0   7  -1    1.57    0.13
   0   7  -1    1.94    0.16
   0   7  -1    1.88    0.10
   0   7  -1    1.91    0.13
   0   7  -1    2.36    0.17
   0   7  -1    1.77    0.10
   0   7  -1    2.14    0.16
   0   7  -1    1.64    0.11
   0   7  -1    2.07    0.19
   0  -7   1    1.99    0.17
   0  -7   1    1.80    0.15
   0  -7   1    1.75    0.10
   0  -7   1    2.06    0.14
   0  -7   1    1.81    0.14
   0  -7   1    1.57    0.09
   0  -7   1    1.78    0.14
   0  -7   1    1.74    0.11
  -1   7  -1   13.82    0.43
  -1   7  -1   13.60    0.37
  -1   7  -1   13.44    0.42
  -1   7  -1   14.43    0.42
  -1   7  -1   13.43    0.48
  -1   7  -1   13.53    0.45
  -1   7  -1   13.82    0.35
  -1   7  -1   13.73    0.36
  -1   7  -1   12.85    0.51
  -1   7  -1   13.97    0.40
   1  -7   1   13.57    0.41
   1  -7   1   14.03    0.36
   1  -7   1   14.06    0.45
   1  -7   1   13.67    0.42
   1  -7   1   13.71    0.42
   1  -7   1   13.85    0.50
   1  -7   1   13.35    0.37
   1  -7   1   13.65    0.33
  -2   7  -1   38.75    1.21
  -2   7  -1   39.87    0.91
  -2   7  -1   38.34    0.95
  -2   7  -1   39.59    0.91
  -2   7  -1   42.11    1.09
  -2   7  -1   38.66    1.23
  -2   7  -1   38.89    1.03
  -2   7  -1   38.99    1.00
  -2   7  -1   38.57    1.08
   2  -7   1   37.87    0.96
   2  -7   1   38.33    0.92
   2  -7   1   39.47    0.85
   2  -7   1   38.04    1.07
   2  -7   1   38.94    1.22
   2  -7   1   38.31    1.01
   2  -7   1   39.10    0.93
   2  -7   1   38.78    1.03
   2  -7   1   39.13    1.07
  -3   7  -1    9.02    0.28
  -3   7  -1    8.95    0.33
  -3   7  -1    9.25    0.33
  -3   7  -1    9.31    0.28
  -3   7  -1    9.54    0.40
  -3   7  -1    9.22    0.35
  -3   7  -1    9.26    0.26
   3  -7   1    8.89    0.31
   3  -7   1    9.00    0.29
   3  -7   1    9.42    0.26
   3  -7   1    9.13    0.33
   3  -7   1    9.21    0.33
   3  -7   1    8.74    0.29
  -4   7  -1    2.56    0.20
  -4   7  -1    2.40    0.20
   4  -7   1    2.67    0.21
   4  -7   1    2.66    0.16
   4  -7   1    2.70    0.20
   4  -7   1    2.23    0.18
  -5   7  -1    1.63    0.20
  -5   7  -1    1.78    0.21
   5  -7   1    1.79    0.14
   5  -7   1    1.65    0.20
   5  -7   1    1.89    0.21
   4   6  -1    2.25    0.20
   4   6  -1    2.30    0.20
  -4  -6   1    2.41    0.20
  -4  -6   1    2.63    0.21
   3   6  -1    5.57    0.21
   3   6  -1    5.38    0.25
   3   6  -1    5.13    0.25
   3   6  -1    5.46    0.30
   3   6  -1    5.57    0.21
   3   6  -1    5.72    0.26
  -3  -6   1    5.40    0.25
  -3  -6   1    5.70    0.25
  -3  -6   1    5.58    0.22
  -3  -6   1    6.02    0.25
   2   6  -1    5.19    0.21
   2   6  -1    5.27    0.23
   2   6  -1    5.11    0.23
   2   6  -1    5.35    0.18
   2   6  -1    5.15    0.21
   2   6  -1    5.82    0.19
   2   6  -1    5.01    0.23
   2   6  -1    5.50    0.27
   2   6  -1    5.20    0.27
   2   6  -1    5.28    0.23
  -2  -6   1    5.43    0.19
  -2  -6   1    5.40    0.24
  -2  -6   1    5.20    0.23
  -2  -6   1    5.18    0.24
  -2  -6   1    5.08    0.22
  -2  -6   1    4.95    0.21
   1   6  -1    0.54    0.06
   1   6  -1    0.63    0.09
   1   6  -1    0.50    0.08
   1   6  -1    0.60    0.10
   1   6  -1    0.58    0.09
   1   6  -1    0.63    0.08
   1   6  -1    0.58    0.09
   1   6  -1    0.58    0.10
   1   6  -1    0.69    0.07
   1   6  -1    0.60    0.11
  -1  -6   1    0.63    0.09
  -1  -6   1    0.61    0.09
  -1  -6   1    0.80    0.10
  -1  -6   1    0.59    0.08
  -1  -6   1    0.59    0.09
  -1  -6   1    0.51    0.08
  -1  -6   1    0.64    0.07
   0   6  -1   31.19    0.73
   0   6  -1   32.47    0.89
   0   6  -1   32.74    0.90
   0   6  -1   31.68    0.82
   0   6  -1   31.04    0.98
   0   6  -1   31.07    0.84
   0   6  -1   30.64    0.79
   0   6  -1   33.70    0.86
   0   6  -1   31.86    0.74
   0   6  -1   31.78    1.00
   0  -6   1   31.82    0.88
   0  -6   1   32.28    0.85
   0  -6   1   34.05    0.90
   0  -6   1   30.82    0.75
   0  -6   1   31.02    0.74
   0  -6   1   30.82    0.98
   0  -6   1   33.16    0.84
   0  -6   1   30.74    0.69
  -1   6  -1   23.07    0.61
  -1   6  -1   23.47    0.56
  -1   6  -1   23.07    0.66
  -1   6  -1   22.70    0.58
  -1   6  -1   23.69    0.63
  -1   6  -1   23.40    0.66
  -1   6  -1   23.51    0.63
  -1   6  -1   23.29    0.55
  -1   6  -1   23.94    0.77
  -1   6  -1   23.68    0.74
   1  -6   1   22.72    0.55
   1  -6   1   23.51    0.62
   1  -6   1   21.99    0.74
   1  -6   1   22.92    0.57
   1  -6   1   22.31    0.51
   1  -6   1   23.71    0.66
   1  -6   1   22.37    0.65
   1  -6   1   23.98    0.63
  -2   6  -1    0.50    0.10
  -2   6  -1    0.58    0.09
  -2   6  -1    0.50    0.09
  -2   6  -1    0.50    0.07
  -2   6  -1    0.61    0.07
  -2   6  -1    0.54    0.09
  -2   6  -1    0.54    0.13
  -2   6  -1    0.45    0.08
  -2   6  -1    0.55    0.05
  -2   6  -1    0.60    0.09
   2  -6   1    0.69    0.08
   2  -6   1    0.55    0.09
   2  -6   1    0.65    0.09
   2  -6   1    0.50    0.07
   2  -6   1    0.66    0.12
   2  -6   1    0.53    0.07
   2  -6   1    0.61    0.06
   2  -6   1    0.60    0.09
   2  -6   1    0.51    0.08
  -3   6  -1   11.82    0.37
  -3   6  -1   11.55    0.31
  -3   6  -1   11.80    0.39
  -3   6  -1   11.09    0.44
  -3   6  -1   11.19    0.37
  -3   6  -1   10.80    0.31
  -3   6  -1   10.79    0.44
  -3   6  -1   11.37    0.39
  -3   6  -1   10.70    0.31
   3  -6   1   10.82    0.32
   3  -6   1   10.87    0.29
   3  -6   1   10.69    0.34
   3  -6   1   10.41    0.37
   3  -6   1   10.81    0.36
   3  -6   1   11.29    0.39
   3  -6   1   11.23    0.39
   3  -6   1   11.66    0.33
  -4   6  -1    1.84    0.17
  -4   6  -1    1.98    0.17
   4  -6   1    1.60    0.15
   4  -6   1    1.57    0.17
   4  -6   1    1.69    0.16
   4  -6   1    1.60    0.12
  -5   6  -1    0.85    0.17
  -5   6  -1    1.16    0.19
   5  -6   1    1.23    0.19
   5  -6   1    1.02    0.12
   5  -6   1    1.23    0.18
   5   5  -1    0.49    0.16
   5   5  -1    0.52    0.16
  -5  -5   1    1.00    0.18
  -5  -5   1    0.59    0.17
   4   5  -1    1.71    0.17
   4   5  -1    1.77    0.18
  -4  -5   1    1.95    0.18
  -4  -5   1    1.69    0.17
   3   5  -1    0.10    0.09
   3   5  -1    0.22    0.09
   3   5  -1    0.18    0.07
   3   5  -1   -0.10    0.10
   3   5  -1    0.17    0.09
   3   5  -1    0.20    0.08
   3   5  -1    0.14    0.09
   3   5  -1    0.20    0.05
  -3  -5   1    0.14    0.09
  -3  -5   1    0.20    0.09
  -3  -5   1    0.14    0.09
  -3  -5   1    0.17    0.07
  -3  -5   1    0.21    0.09
  -3  -5   1    0.28    0.09
   2   5  -1    6.88    0.21
   2   5  -1    6.85    0.27
   2   5  -1    6.89    0.24
   2   5  -1    6.94    0.26
   2   5  -1    6.92    0.26
   2   5  -1    6.93    0.21
   2   5  -1    6.47    0.24
   2   5  -1    7.30    0.26
   2   5  -1    6.75    0.29
   2   5  -1    7.05    0.30
  -2  -5   1    6.85    0.24
  -2  -5   1    6.52    0.21
  -2  -5   1    6.94    0.25
  -2  -5   1    7.13    0.26
  -2  -5   1    7.06    0.25
  -2  -5   1    7.01    0.26
   1   5  -1   70.99    1.63
   1   5  -1   72.55    1.63
   1   5  -1   71.95    1.77
   1   5  -1   75.25    1.91
   1   5  -1   74.34    1.83
   1   5  -1   74.46    2.15
   1   5  -1   69.53    1.90
   1   5  -1   72.61    1.79
   1   5  -1   73.82    2.16
   1   5  -1   75.56    1.83
  -1  -5   1   72.67    1.79
  -1  -5   1   71.21    1.90
  -1  -5   1   67.99    2.14
  -1  -5   1   73.84    1.77
  -1  -5   1   75.99    1.64
  -1  -5   1   74.81    1.90
  -1  -5   1   68.26    1.82
   0   5  -1   45.55    1.15
   0   5  -1   45.76    1.43
   0   5  -1   48.89    1.28
   0   5  -1   51.28    1.23
   0   5  -1   48.74    1.27
   0   5  -1   46.68    1.41
   0   5  -1   46.28    1.06
   0   5  -1   46.40    1.21
   0   5  -1   46.67    1.17
   0   5  -1   46.46    1.07
   0  -5   1   49.21    1.22
   0  -5   1   44.65    1.41
   0  -5   1   46.84    1.00
   0  -5   1   47.58    1.41
   0  -5   1   46.34    1.25
   0  -5   1   46.52    1.07
   0  -5   1   45.64    1.21
   0  -5   1   51.71    1.28
   0  -5   1   46.80    1.08
   0  -5   1   48.85    1.20
  -1   5  -1   74.96    2.22
  -1   5  -1   73.82    1.68
  -1   5  -1   75.48    1.67
  -1   5  -1   75.39    2.21
  -1   5  -1   75.38    1.83
  -1   5  -1   77.53    1.87
  -1   5  -1   75.14    1.96
  -1   5  -1   76.80    1.95
  -1   5  -1   75.53    1.87
   1  -5   1   73.29    1.57
   1  -5   1   75.17    1.84
   1  -5   1   75.11    1.68
   1  -5   1   74.13    1.68
   1  -5   1   74.49    1.87
   1  -5   1   75.06    1.87
   1  -5   1   72.69    2.21
   1  -5   1   73.80    1.95
   1  -5   1   76.13    1.95
  -2   5  -1    6.15    0.22
  -2   5  -1    6.09    0.17
  -2   5  -1    6.09    0.23
  -2   5  -1    6.06    0.23
  -2   5  -1    5.69    0.27
  -2   5  -1    6.16    0.22
  -2   5  -1    5.99    0.26
  -2   5  -1    6.38    0.19
  -2   5  -1    5.87    0.21
  -2   5  -1    6.15    0.18
   2  -5   1    6.14    0.27
   2  -5   1    6.18    0.19
   2  -5   1    6.16    0.20
   2  -5   1    6.41    0.23
   2  -5   1    6.26    0.17
   2  -5   1    6.08    0.22
   2  -5   1    5.79    0.20
   2  -5   1    6.14    0.22
   2  -5   1    5.91    0.22
  -3   5  -1   11.93    0.40
  -3   5  -1   11.80    0.45
  -3   5  -1   12.25    0.33
  -3   5  -1   11.56    0.33
  -3   5  -1   11.69    0.46
  -3   5  -1   11.79    0.38
  -3   5  -1   12.02    0.41
  -3   5  -1   11.20    0.37
  -3   5  -1   11.70    0.32
   3  -5   1   12.14    0.33
   3  -5   1   12.02    0.40
   3  -5   1   12.11    0.38
   3  -5   1   11.49    0.39
   3  -5   1   11.45    0.35
   3  -5   1   11.46    0.33
   3  -5   1   11.72    0.38
   3  -5   1   12.25    0.45
   3  -5   1   11.41    0.30
  -4   5  -1    2.55    0.20
  -4   5  -1    2.69    0.15
  -4   5  -1    3.06    0.20
  -4   5  -1    2.60    0.16
   4  -5   1    2.67    0.15
   4  -5   1    2.81    0.18
   4  -5   1    2.63    0.19
   4  -5   1    2.61    0.20
  -5   5  -1    0.08    0.14
  -5   5  -1   -0.04    0.14
   5  -5   1   -0.16    0.14
   5  -5   1   -0.11    0.09
   5  -5   1    0.12    0.14
   5   4  -1    0.62    0.17
   5   4  -1    0.32    0.16
  -5  -4   1    0.49    0.15
  -5  -4   1    0.38    0.15
   4   4  -1    0.03    0.06
   4   4  -1   -0.11    0.11
   4   4  -1    0.00    0.12
  -4  -4   1    0.16    0.10
  -4  -4   1    0.11    0.11
  -4  -4   1   -0.07    0.11
   3   4  -1    4.54    0.21
   3   4  -1    5.00    0.27
   3   4  -1    4.65    0.23
   3   4  -1    5.04    0.15
   3   4  -1    4.63    0.25
   3   4  -1    4.98    0.21
   3   4  -1    4.89    0.18
   3   4  -1    4.88    0.23
   3   4  -1    4.92    0.21
  -3  -4   1    4.61    0.21
  -3  -4   1    5.05    0.27
  -3  -4   1    4.80    0.19
  -3  -4   1    4.74    0.22
  -3  -4   1    4.74    0.22
  -3  -4   1    4.73    0.23
  -3  -4   1    4.92    0.21
  -3  -4   1    5.53    0.27
   2   4  -1   22.17    0.63
   2   4  -1   22.25    0.71
   2   4  -1   22.15    0.48
   2   4  -1   21.43    0.53
   2   4  -1   22.35    0.59
   2   4  -1   21.97    0.71
   2   4  -1   22.11    0.60
   2   4  -1   21.64    0.63
   2   4  -1   22.43    0.53
   2   4  -1   22.40    0.59
   2   4  -1   22.60    0.61
  -2  -4   1   21.66    0.59
  -2  -4   1   21.70    0.63
  -2  -4   1   21.62    0.59
  -2  -4   1   22.22    0.63
  -2  -4   1   22.09    0.53
  -2  -4   1   22.24    0.60
   1   4  -1   18.28    0.52
   1   4  -1   19.07    0.50
   1   4  -1   18.48    0.49
   1   4  -1   18.46    0.44
   1   4  -1   19.17    0.53
   1   4  -1   18.60    0.50
   1   4  -1   18.78    0.44
   1   4  -1   19.26    0.50
   1   4  -1   19.85    0.60
   1   4  -1   18.21    0.48
   1   4  -1   18.16    0.59
  -1  -4   1   17.80    0.50
  -1  -4   1   18.52    0.44
  -1  -4   1   18.75    0.52
  -1  -4   1   18.60    0.49
  -1  -4   1   18.82    0.52
  -1  -4   1   17.74    0.58
  -1  -4   1   18.92    0.50
  -1  -4   1   17.94    0.58
  -1  -4   1   18.78    0.52
  -1  -4   1   18.95    0.49
   0   4  -1   12.31    0.35
   0   4  -1   11.99    0.38
   0   4  -1   12.29    0.30
   0   4  -1   12.62    0.37
   0   4  -1   12.26    0.30
   0   4  -1   11.94    0.42
   0   4  -1   13.18    0.37
   0   4  -1   11.70    0.40
   0   4  -1   11.86    0.33
   0   4  -1   12.16    0.32
   0  -4   1   11.94    0.40
   0  -4   1   12.24    0.30
   0  -4   1   12.88    0.38
   0  -4   1   12.45    0.31
   0  -4   1   12.54    0.34
   0  -4   1   11.95    0.39
   0  -4   1   12.79    0.36
   0  -4   1   12.01    0.36
   0  -4   1   13.10    0.36
   0  -4   1   11.60    0.35
  -1   4  -1   27.26    0.63
  -1   4  -1   26.34    0.84
  -1   4  -1   27.12    0.70
  -1   4  -1   27.18    0.83
  -1   4  -1   26.66    0.69
  -1   4  -1   26.64    0.73
  -1   4  -1   27.13    0.57
  -1   4  -1   26.88    0.73
  -1   4  -1   27.44    0.62
  -1   4  -1   28.79    0.71
   1  -4   1   26.75    0.82
   1  -4   1   27.67    0.58
   1  -4   1   25.97    0.69
   1  -4   1   27.29    0.63
   1  -4   1   27.71    0.63
   1  -4   1   26.84    0.73
   1  -4   1   27.03    0.66
   1  -4   1   28.27    0.84
   1  -4   1   27.87    0.70
   1  -4   1   27.52    0.73
   1  -4   1   27.35    0.70
  -2   4  -1   37.15    0.89
  -2   4  -1   37.39    0.85
  -2   4  -1   37.25    0.90
  -2   4  -1   36.53    0.85
  -2   4  -1   36.93    1.00
  -2   4  -1   36.21    0.94
  -2   4  -1   37.92    1.13
  -2   4  -1   36.17    1.13
  -2   4  -1   37.38    0.96
  -2   4  -1   37.25    0.95
  -2   4  -1   37.81    1.00
   2  -4   1   36.97    1.00
   2  -4   1   36.43    0.89
   2  -4   1   37.06    0.86
   2  -4   1   37.63    0.96
   2  -4   1   37.31    1.13
   2  -4   1   37.26    1.00
   2  -4   1   35.79    0.85
   2  -4   1   37.28    0.94
   2  -4   1   36.64    0.79
  -3   4  -1    6.72    0.22
  -3   4  -1    6.81    0.26
  -3   4  -1    6.73    0.21
  -3   4  -1    7.42    0.25
  -3   4  -1    6.96    0.32
  -3   4  -1    7.24    0.27
  -3   4  -1    6.81    0.26
  -3   4  -1    6.84    0.28
  -3   4  -1    6.87    0.22
  -3   4  -1    6.90    0.30
   3  -4   1    6.73    0.21
   3  -4   1    6.98    0.20
   3  -4   1    6.80    0.24
   3  -4   1    6.67    0.22
   3  -4   1    7.03    0.26
   3  -4   1    6.90    0.27
   3  -4   1    6.83    0.26
   3  -4   1    6.69    0.32
   3  -4   1    6.88    0.27
  -4   4  -1    4.44    0.26
  -4   4  -1    4.31    0.22
  -4   4  -1    4.67    0.19
  -4   4  -1    4.48    0.24
  -4   4  -1    4.48    0.19
   4  -4   1    4.59    0.19
   4  -4   1    4.68    0.18
   4  -4   1    4.23    0.23
   4  -4   1    4.58    0.24
   4  -4   1    4.39    0.22
  -5   4  -1    1.02    0.17
  -5   4  -1    1.10    0.17
   5  -4   1    1.06    0.12
   5  -4   1    0.89    0.17
   5  -4   1    0.97    0.16
   5   3  -1    0.27    0.14
   5   3  -1    0.41    0.16
  -5  -3   1    0.41    0.16
  -5  -3   1    0.31    0.15
   4   3  -1    3.62    0.22
   4   3  -1    3.37    0.14
   4   3  -1    3.58    0.21
  -4  -3   1    3.21    0.19
  -4  -3   1    3.38    0.22
  -4  -3   1    3.55    0.22
   3   3  -1    7.80    0.33
   3   3  -1    7.76    0.30
   3   3  -1    8.28    0.32
   3   3  -1    6.80    0.27
   3   3  -1    7.21    0.27
   3   3  -1    7.48    0.29
   3   3  -1    7.34    0.20
   3   3  -1    7.40    0.23
   3   3  -1    7.64    0.27
  -3  -3   1    7.58    0.33
  -3  -3   1    7.08    0.26
  -3  -3   1    7.53    0.29
  -3  -3   1    7.36    0.28
  -3  -3   1    7.26    0.24
  -3  -3   1    7.59    0.26
  -3  -3   1    7.70    0.27
  -3  -3   1    7.13    0.29
   2   3  -1    2.27    0.13
   2   3  -1    2.48    0.13
   2   3  -1    2.37    0.13
   2   3  -1    2.51    0.15
   2   3  -1    2.38    0.10
   2   3  -1    2.44    0.08
   2   3  -1    2.29    0.13
   2   3  -1    2.61    0.16
   2   3  -1    2.34    0.12
   2   3  -1    2.23    0.13
   2   3  -1    2.52    0.12
  -2  -3   1    2.57    0.11
  -2  -3   1    2.38    0.13
  -2  -3   1    2.42    0.13
  -2  -3   1    2.24    0.16
  -2  -3   1    2.24    0.13
  -2  -3   1    2.50    0.13
  -2  -3   1    2.43    0.12
   1   3  -1    4.45    0.13
   1   3  -1    4.38    0.18
   1   3  -1    4.67    0.15
   1   3  -1    4.69    0.16
   1   3  -1    4.77    0.18
   1   3  -1    4.51    0.16
   1   3  -1    4.53    0.16
   1   3  -1    4.43    0.13
   1   3  -1    4.33    0.15
   1   3  -1    4.84    0.15
  -1  -3   1    4.56    0.16
  -1  -3   1    4.53    0.16
  -1  -3   1    4.58    0.13
  -1  -3   1    4.31    0.16
  -1  -3   1    4.67    0.15
  -1  -3   1    4.51    0.15
  -1  -3   1    4.37    0.16
  -1  -3   1    4.73    0.15
  -1  -3   1    4.54    0.12
  -1  -3   1    4.28    0.18
  -1  -3   1    4.35    0.15
   0   3  -1   79.15    2.03
   0   3  -1   82.88    1.96
   0   3  -1   78.51    2.30
   0   3  -1   73.79    1.94
   0   3  -1   77.98    1.90
   0   3  -1   81.47    1.74
   0   3  -1   75.16    2.04
   0   3  -1   80.46    1.88
   0   3  -1   79.60    1.74
   0   3  -1   77.66    1.91
   0   3  -1   78.92    2.29
   0  -3   1   79.31    2.29
   0  -3   1   80.78    1.95
   0  -3   1   79.54    2.02
   0  -3   1   80.41    1.88
   0  -3   1   80.45    1.74
   0  -3   1   79.34    1.74
   0  -3   1   78.46    2.04
   0  -3   1   78.93    1.90
   0  -3   1   77.81    2.29
   0  -3   1   77.39    1.92
   0  -3   1   74.28    1.95
  -1   3  -1   19.68    0.58
  -1   3  -1   18.35    0.51
  -1   3  -1   19.28    0.44
  -1   3  -1   18.43    0.45
  -1   3  -1   18.90    0.49
  -1   3  -1   18.95    0.51
  -1   3  -1   18.63    0.58
  -1   3  -1   18.40    0.40
  -1   3  -1   18.45    0.43
  -1   3  -1   18.96    0.49
  -1   3  -1   18.48    0.48
   1  -3   1   18.42    0.48
   1  -3   1   18.84    0.49
   1  -3   1   18.67    0.46
   1  -3   1   18.55    0.57
   1  -3   1   18.32    0.48
   1  -3   1   18.79    0.58
   1  -3   1   18.33    0.44
   1  -3   1   18.49    0.40
   1  -3   1   18.44    0.49
   1  -3   1   18.51    0.51
   1  -3   1   18.61    0.51
   1  -3   1   19.09    0.44
  -2   3  -1    0.29    0.07
  -2   3  -1    0.24    0.06
  -2   3  -1    0.25    0.07
  -2   3  -1    0.22    0.06
  -2   3  -1    0.05    0.06
  -2   3  -1    0.23    0.06
  -2   3  -1    0.15    0.05
  -2   3  -1    0.29    0.04
  -2   3  -1    0.22    0.06
  -2   3  -1    0.24    0.08
  -2   3  -1    0.33    0.05
   2  -3   1    0.21    0.06
   2  -3   1    0.23    0.08
   2  -3   1    0.27    0.04
   2  -3   1    0.27    0.06
   2  -3   1    0.26    0.05
   2  -3   1    0.19    0.06
   2  -3   1    0.26    0.05
   2  -3   1    0.27    0.07
   2  -3   1    0.32    0.04
   2  -3   1    0.20    0.06
   2  -3   1    0.23    0.06
  -3   3  -1   14.33    0.50
  -3   3  -1   14.34    0.42
  -3   3  -1   14.32    0.45
  -3   3  -1   13.50    0.51
  -3   3  -1   14.75    0.39
  -3   3  -1   13.82    0.40
  -3   3  -1   14.39    0.37
  -3   3  -1   14.29    0.37
  -3   3  -1   13.73    0.42
   3  -3   1   14.23    0.42
   3  -3   1   14.38    0.34
   3  -3   1   14.21    0.51
   3  -3   1   14.02    0.44
   3  -3   1   13.97    0.40
   3  -3   1   13.96    0.44
   3  -3   1   14.35    0.38
   3  -3   1   13.97    0.42
   3  -3   1   13.49    0.37
  -4   3  -1   12.67    0.35
  -4   3  -1   11.14    0.40
  -4   3  -1   11.89    0.39
  -4   3  -1   12.01    0.36
  -4   3  -1   11.93    0.43
   4  -3   1   11.56    0.37
   4  -3   1   11.89    0.41
   4  -3   1   12.20    0.32
   4  -3   1   11.95    0.36
   4  -3   1   11.89    0.41
   4  -3   1   12.15    0.36
  -5   3  -1    1.70    0.19
  -5   3  -1    1.48    0.18
   5  -3   1    1.61    0.18
   5  -3   1    1.48    0.13
   5  -3   1    1.65    0.19
   5   2  -1    1.37    0.18
   5   2  -1    1.21    0.17
  -5  -2   1    1.16    0.17
  -5  -2   1    1.48    0.18
   4   2  -1    2.77    0.12
   4   2  -1    2.64    0.20
   4   2  -1    2.57    0.20
   4   2  -1    2.17    0.18
  -4  -2   1    2.74    0.19
  -4  -2   1    3.06    0.17
  -4  -2   1    2.66    0.20
  -4  -2   1    2.62    0.17
   3   2  -1    0.81    0.10
   3   2  -1    1.10    0.13
   3   2  -1    1.01    0.07
   3   2  -1    0.92    0.08
   3   2  -1    0.86    0.10
   3   2  -1    1.00    0.11
   3   2  -1    0.96    0.10
  -3  -2   1    0.91    0.11
  -3  -2   1    1.11    0.11
  -3  -2   1    0.96    0.12
  -3  -2   1    1.07    0.09
  -3  -2   1    0.91    0.10
  -3  -2   1    0.84    0.10
  -3  -2   1    0.85    0.10
  -3  -2   1    1.05    0.11
   2   2  -1    1.22    0.09
   2   2  -1    1.16    0.09
   2   2  -1    1.25    0.10
   2   2  -1    0.87    0.08
   2   2  -1    1.06    0.08
   2   2  -1    1.04    0.08
   2   2  -1    1.21    0.11
   2   2  -1    1.09    0.06
   2   2  -1    1.12    0.07
  -2  -2   1    0.90    0.08
  -2  -2   1    1.31    0.10
  -2  -2   1    1.09    0.09
  -2  -2   1    0.96    0.08
  -2  -2   1    1.12    0.09
  -2  -2   1    1.15    0.08
  -2  -2   1    1.21    0.09
  -2  -2   1    1.17    0.10
  -2  -2   1    1.17    0.10
  -2  -2   1    1.19    0.11
   1   2  -1  958.74   22.77
   1   2  -1  925.29   19.60
   1   2  -1  924.79   24.22
   1   2  -1  950.25   24.22
   1   2  -1  906.20   27.48
   1   2  -1 1000.00   23.25
   1   2  -1  955.10   23.23
   1   2  -1  926.35   22.61
   1   2  -1  969.00   20.88
   1   2  -1  948.90   24.22
   1   2  -1  975.33   22.76
  -1  -2   1  952.85   22.63
  -1  -2   1  977.24   23.22
  -1  -2   1  946.93   20.88
  -1  -2   1  929.51   24.22
  -1  -2   1  940.81   23.23
  -1  -2   1  972.02   22.77
  -1  -2   1  936.28   27.44
  -1  -2   1  947.44   19.62
  -1  -2   1  946.81   22.78
  -1  -2   1  976.01   24.21
   0   2  -1   18.10    0.56
   0   2  -1   21.13    0.62
   0   2  -1   19.59    0.52
   0   2  -1   21.09    0.61
   0   2  -1   21.34    0.46
   0   2  -1   20.44    0.53
   0   2  -1   20.93    0.50
   0   2  -1   20.49    0.54
   0   2  -1   20.89    0.51
   0   2  -1   21.69    0.46
   0   2  -1   21.92    0.55
   0  -2   1   18.00    0.52
   0  -2   1   21.10    0.55
   0  -2   1   21.43    0.47
   0  -2   1   21.94    0.50
   0  -2   1   20.32    0.53
   0  -2   1   21.00    0.61
   0  -2   1   20.23    0.53
   0  -2   1   21.50    0.51
   0  -2   1   18.71    0.56
   0  -2   1   21.51    0.47
   0  -2   1   20.87    0.61
  -1   2  -1   56.13    1.43
  -1   2  -1   57.20    1.41
  -1   2  -1   58.70    1.29
  -1   2  -1   57.14    1.41
  -1   2  -1   58.11    1.70
  -1   2  -1   58.90    1.70
  -1   2  -1   57.89    1.20
  -1   2  -1   57.89    1.50
  -1   2  -1   56.92    1.50
  -1   2  -1   59.55    1.29
  -1   2  -1   58.63    1.38
  -1   2  -1   58.71    1.43
   1  -2   1   56.29    1.69
   1  -2   1   58.22    1.41
   1  -2   1   59.00    1.41
   1  -2   1   58.09    1.38
   1  -2   1   58.32    1.29
   1  -2   1   59.19    1.34
   1  -2   1   58.10    1.69
   1  -2   1   57.77    1.50
   1  -2   1   57.46    1.50
   1  -2   1   58.44    1.43
   1  -2   1   58.49    1.43
   1  -2   1   58.43    1.29
   1  -2   1   57.23    1.21
  -2   2  -1   41.73    1.09
  -2   2  -1   41.71    0.98
  -2   2  -1   41.87    0.94
  -2   2  -1   41.19    1.24
  -2   2  -1   41.47    0.94
  -2   2  -1   40.09    1.03
  -2   2  -1   42.27    1.05
  -2   2  -1   43.02    1.05
  -2   2  -1   40.57    1.09
  -2   2  -1   41.04    1.24
  -2   2  -1   41.88    1.00
   2  -2   1   39.23    1.04
   2  -2   1   42.19    1.00
   2  -2   1   40.26    0.94
   2  -2   1   42.52    1.05
   2  -2   1   40.94    0.87
   2  -2   1   41.05    0.98
   2  -2   1   42.38    1.24
   2  -2   1   39.85    1.03
   2  -2   1   36.21    1.23
   2  -2   1   41.38    1.09
   2  -2   1   41.10    1.09
   2  -2   1   41.11    1.23
  -3   2  -1   15.85    0.49
  -3   2  -1   15.96    0.56
  -3   2  -1   15.46    0.46
  -3   2  -1   16.66    0.56
  -3   2  -1   15.60    0.47
  -3   2  -1   16.17    0.41
  -3   2  -1   16.01    0.41
  -3   2  -1   15.79    0.43
  -3   2  -1   16.30    0.44
   3  -2   1   16.41    0.49
   3  -2   1   15.47    0.46
   3  -2   1   15.54    0.41
   3  -2   1   15.57    0.43
   3  -2   1   16.49    0.56
   3  -2   1   15.95    0.49
   3  -2   1   16.42    0.43
   3  -2   1   15.84    0.38
   3  -2   1   15.97    0.46
  -4   2  -1    1.45    0.15
  -4   2  -1    1.50    0.12
  -4   2  -1    1.37    0.16
  -4   2  -1    1.49    0.12
  -4   2  -1    1.40    0.14
   4  -2   1    1.35    0.10
   4  -2   1    1.48    0.15
   4  -2   1    1.22    0.12
   4  -2   1    1.42    0.15
   4  -2   1    1.55    0.12
  -5   2  -1    1.16    0.17
  -5   2  -1    1.02    0.16
   5  -2   1    1.01    0.17
   5  -2   1    1.10    0.11
   5  -2   1    0.96    0.16
   5   1  -1    0.16    0.14
   5   1  -1    0.13    0.14
  -5  -1   1    0.17    0.13
  -5  -1   1    0.31    0.14
   4   1  -1    0.52    0.12
   4   1  -1    0.46    0.12
   4   1  -1    0.48    0.07
   4   1  -1    0.36    0.11
  -4  -1   1    0.38    0.11
  -4  -1   1    0.48    0.11
  -4  -1   1    0.49    0.10
  -4  -1   1    0.61    0.10
   3   1  -1   15.06    0.53
   3   1  -1   16.49    0.47
   3   1  -1   14.92    0.44
   3   1  -1   15.08    0.44
   3   1  -1   15.01    0.35
   3   1  -1   16.29    0.45
  -3  -1   1   15.40    0.53
  -3  -1   1   14.95    0.45
  -3  -1   1   15.17    0.43
  -3  -1   1   14.69    0.42
  -3  -1   1   15.47    0.44
  -3  -1   1   15.07    0.47
  -3  -1   1   15.19    0.47
  -3  -1   1   15.04    0.39
   2   1  -1   43.57    1.13
   2   1  -1   42.08    0.96
   2   1  -1   43.04    1.08
   2   1  -1   41.73    1.08
   2   1  -1   41.51    1.05
   2   1  -1   42.56    1.13
   2   1  -1   42.59    1.28
   2   1  -1   42.30    0.89
   2   1  -1   42.57    1.06
  -2  -1   1   40.99    1.00
  -2  -1   1   43.20    0.97
  -2  -1   1   43.07    1.08
  -2  -1   1   42.50    1.13
  -2  -1   1   42.12    1.08
  -2  -1   1   42.90    1.06
  -2  -1   1   42.03    1.27
  -2  -1   1   42.34    1.27
  -2  -1   1   43.42    1.05
  -2  -1   1   42.18    1.12
   1   1  -1   32.90    0.84
   1   1  -1   34.09    1.02
   1   1  -1   34.98    0.84
   1   1  -1   34.51    0.90
   1   1  -1   33.91    0.84
   1   1  -1   34.66    0.77
   1   1  -1   35.36    0.86
   1   1  -1   34.22    0.86
   1   1  -1   33.65    0.72
   1   1  -1   34.77    0.90
  -1  -1   1   35.08    0.84
  -1  -1   1   33.72    1.01
  -1  -1   1   34.87    0.84
  -1  -1   1   34.41    0.86
  -1  -1   1   34.62    0.77
  -1  -1   1   34.66    1.01
  -1  -1   1   34.19    0.90
  -1  -1   1   34.39    0.90
  -1  -1   1   33.21    0.84
  -1  -1   1   34.41    0.72
  -1  -1   1   33.94    0.86
   0   1  -1   26.46    0.61
   0   1  -1   26.00    0.65
   0   1  -1   26.30    0.73
   0   1  -1   25.47    0.61
   0   1  -1   25.87    0.62
   0   1  -1   25.72    0.73
   0   1  -1   21.57    0.65
   0  -1   1   25.48    0.61
   0  -1   1   26.00    0.62
   0  -1   1   26.41    0.62
   0  -1   1   25.36    0.65
   0  -1   1   26.58    0.61
   0  -1   1   22.55    0.65
  -1   1  -1   57.13    1.38
  -1   1  -1   55.92    1.31
  -1   1  -1   57.08    1.27
  -1   1  -1   55.79    1.18
  -1   1  -1   55.86    1.67
  -1   1  -1   55.68    1.38
  -1   1  -1   56.24    1.47
  -1   1  -1   57.77    1.27
  -1   1  -1   57.42    1.36
  -1   1  -1   59.06    1.41
  -1   1  -1   57.10    1.47
  -1   1  -1   56.47    1.67
   1  -1   1   57.38    1.41
   1  -1   1   56.41    1.36
   1  -1   1   55.85    1.38
   1  -1   1   56.13    1.31
   1  -1   1   55.35    1.19
   1  -1   1   57.47    1.47
   1  -1   1   56.89    1.27
   1  -1   1   56.19    1.47
   1  -1   1   57.40    1.27
   1  -1   1   58.16    1.38
   1  -1   1   63.96    1.67
   1  -1   1   57.97    1.41
  -2   1  -1   19.48    0.61
  -2   1  -1   18.46    0.53
  -2   1  -1   18.87    0.47
  -2   1  -1   19.80    0.51
  -2   1  -1   18.69    0.48
  -2   1  -1   19.21    0.50
  -2   1  -1   19.34    0.45
  -2   1  -1   18.58    0.60
  -2   1  -1   18.48    0.51
  -2   1  -1   18.97    0.53
   2  -1   1   18.62    0.48
   2  -1   1   19.28    0.53
   2  -1   1   18.85    0.53
   2  -1   1   18.83    0.47
   2  -1   1   18.73    0.51
   2  -1   1   18.63    0.60
   2  -1   1   18.57    0.45
   2  -1   1   18.61    0.50
   2  -1   1   18.92    0.51
   2  -1   1   19.07    0.42
  -3   1  -1    0.02    0.08
  -3   1  -1   -0.05    0.08
  -3   1  -1   -0.02    0.06
  -3   1  -1    0.02    0.07
  -3   1  -1   -0.03    0.02
  -3   1  -1    0.05    0.06
  -3   1  -1   -0.03    0.06
  -3   1  -1   -0.03    0.07
  -3   1  -1   -0.03    0.07
  -3   1  -1   -0.05    0.07
   3  -1   1    0.02    0.06
   3  -1   1    0.06    0.07
   3  -1   1   -0.02    0.06
   3  -1   1   -0.06    0.09
   3  -1   1    0.02    0.07
   3  -1   1   -0.07    0.07
   3  -1   1   -0.05    0.05
   3  -1   1    0.05    0.08
   3  -1   1    0.00    0.08
  -4   1  -1    7.65    0.31
  -4   1  -1    8.76    0.27
  -4   1  -1    8.55    0.34
  -4   1  -1    8.31    0.28
  -4   1  -1    7.94    0.30
   4  -1   1    8.34    0.29
   4  -1   1    7.91    0.31
   4  -1   1    7.84    0.31
   4  -1   1    7.99    0.24
   4  -1   1    7.99    0.27
  -5   1  -1    1.47    0.15
  -5   1  -1    1.72    0.19
  -5   1  -1    1.48    0.18
   5  -1   1    1.38    0.18
   5  -1   1    1.54    0.12
   5  -1   1    1.30    0.18
   5   0  -1    1.09    0.10
   5   0  -1    1.08    0.17
   5   0  -1    0.71    0.16
  -5   0   1    1.26    0.17
  -5   0   1    1.05    0.17
   4   0  -1    7.62    0.30
   4   0  -1    7.45    0.31
   4   0  -1    7.60    0.21
   4   0  -1    7.06    0.29
   4   0  -1    7.53    0.28
  -4   0   1    7.38    0.29
  -4   0   1    7.42    0.26
  -4   0   1    7.50    0.30
  -4   0   1    7.24    0.25
  -4   0   1    7.31    0.27
   3   0  -1    6.57    0.25
   3   0  -1    6.37    0.17
   3   0  -1    6.77    0.23
   3   0  -1    6.13    0.29
   3   0  -1    6.53    0.24
   3   0  -1    5.95    0.24
   3   0  -1    6.30    0.24
  -3   0   1    6.45    0.24
  -3   0   1    6.60    0.25
  -3   0   1    6.29    0.24
  -3   0   1    6.50    0.22
  -3   0   1    6.26    0.22
  -3   0   1    6.77    0.21
  -3   0   1    6.03    0.24
  -3   0   1    6.36    0.27
   2   0  -1   11.45    0.32
   2   0  -1   11.14    0.26
   2   0  -1   11.40    0.34
   2   0  -1   11.41    0.39
   2   0  -1   11.17    0.32
   2   0  -1   10.98    0.38
   2   0  -1   11.51    0.31
   2   0  -1   11.59    0.32
   2   0  -1   10.85    0.38
  -2   0   1   11.24    0.30
  -2   0   1   11.35    0.32
  -2   0   1   11.41    0.31
  -2   0   1   11.60    0.38
  -2   0   1   11.04    0.32
  -2   0   1   11.32    0.33
  -2   0   1   11.24    0.34
  -2   0   1   11.33    0.29
  -2   0   1   11.33    0.38
  -2   0   1   11.18    0.34
   1   0  -1  180.98    4.67
   1   0  -1  176.07    3.79
   1   0  -1  178.51    4.37
   1   0  -1  178.07    5.27
   1   0  -1  188.55    4.50
   1   0  -1  185.24    4.71
   1   0  -1  181.35    4.41
   1   0  -1  183.12    4.05
   1   0  -1  187.92    4.38
   1   0  -1  182.69    5.29
   1   0  -1  185.30    4.51
  -1   0   1  183.18    4.04
  -1   0   1  181.73    4.67
  -1   0   1  184.09    4.69
  -1   0   1  181.38    4.49
  -1   0   1  188.91    4.18
  -1   0   1  184.34    5.30
  -1   0   1  185.25    4.37
  -1   0   1  182.91    3.78
  -1   0   1  180.79    4.47
  -1   0   1  179.42    4.43
  -1   0   1  185.54    5.31
  -1   0  -1   14.23    0.37
  -1   0  -1   14.12    0.33
  -1   0  -1   14.39    0.35
  -1   0  -1   14.16    0.30
  -1   0  -1   14.12    0.36
  -1   0  -1   13.91    0.36
  -1   0  -1   14.33    0.44
  -1   0  -1   13.84    0.39
  -1   0  -1   14.25    0.37
  -1   0  -1   14.30    0.36
  -1   0  -1   14.34    0.39
   1   0   1   15.76    0.44
   1   0   1   13.64    0.36
   1   0   1   13.61    0.39
   1   0   1   14.39    0.36
   1   0   1   13.83    0.37
   1   0   1   13.96    0.37
   1   0   1   14.08    0.34
   1   0   1   14.16    0.33
   1   0   1   13.83    0.39
   1   0   1   14.54    0.36
   1   0   1   13.78    0.31
  -2   0  -1    1.36    0.09
  -2   0  -1    1.44    0.09
  -2   0  -1    0.91    0.09
  -2   0  -1    1.25    0.09
  -2   0  -1    1.45    0.10
  -2   0  -1    1.22    0.12
  -2   0  -1    1.33    0.11
  -2   0  -1    1.37    0.08
  -2   0  -1    1.41    0.11
  -2   0  -1    1.56    0.12
   2   0   1    1.38    0.07
   2   0   1    1.29    0.10
   2   0   1    1.16    0.10
   2   0   1    1.48    0.10
   2   0   1    1.41    0.11
   2   0   1    1.32    0.09
   2   0   1    1.26    0.08
   2   0   1    1.28    0.09
  -3   0  -1   12.14    0.35
  -3   0  -1   12.49    0.33
  -3   0  -1   12.34    0.45
  -3   0  -1   12.10    0.38
  -3   0  -1   12.20    0.37
  -3   0  -1   12.58    0.45
  -3   0  -1   11.76    0.35
  -3   0  -1   12.58    0.40
  -3   0  -1   11.90    0.39
   3   0   1   11.97    0.38
   3   0   1   12.02    0.30
   3   0   1   12.43    0.36
   3   0   1   12.21    0.38
   3   0   1   12.06    0.33
   3   0   1   11.43    0.44
   3   0   1   12.23    0.39
   3   0   1   12.20    0.39
  -4   0  -1    5.59    0.22
  -4   0  -1    5.38    0.26
  -4   0  -1    5.00    0.25
  -4   0  -1    5.25    0.25
  -4   0  -1    5.01    0.22
   4   0   1    4.88    0.24
   4   0   1    5.39    0.23
   4   0   1    5.06    0.18
   4   0   1    5.30    0.25
  -5   0  -1    5.18    0.29
  -5   0  -1    5.58    0.30
   5   0   1    6.17    0.31
   5   0   1    5.37    0.21
   5   0   1    5.40    0.29
   5  -1  -1    1.78    0.11
   5  -1  -1    1.77    0.18
   5  -1  -1    1.74    0.19
  -5   1   1    1.70    0.16
  -5   1   1    1.57    0.18
  -5   1   1    1.95    0.19
   4  -1  -1    0.53    0.12
   4  -1  -1    0.43    0.12
   4  -1  -1    0.30    0.09
   4  -1  -1    0.35    0.07
   4  -1  -1    0.17    0.07
   4  -1  -1    0.39    0.11
  -4   1   1    0.16    0.10
  -4   1   1    0.41    0.11
  -4   1   1    0.31    0.09
  -4   1   1    0.39    0.09
  -4   1   1    0.42    0.09
  -4   1   1    0.25    0.10
   3  -1  -1    6.69    0.21
   3  -1  -1    6.91    0.25
   3  -1  -1    6.47    0.22
   3  -1  -1    6.48    0.29
   3  -1  -1    6.63    0.25
   3  -1  -1    6.41    0.18
   3  -1  -1    6.40    0.29
   3  -1  -1    6.80    0.24
   3  -1  -1    6.31    0.24
  -3   1   1    6.43    0.25
  -3   1   1    6.75    0.22
  -3   1   1    6.60    0.21
  -3   1   1    6.64    0.29
  -3   1   1    6.76    0.24
  -3   1   1    6.63    0.28
  -3   1   1    7.09    0.24
  -3   1   1    6.41    0.22
  -3   1   1    6.28    0.20
  -3   1   1    6.49    0.25
   2  -1  -1   95.33    2.82
   2  -1  -1   96.79    2.38
   2  -1  -1   94.90    2.21
   2  -1  -1   94.53    2.48
   2  -1  -1   96.50    2.00
   2  -1  -1   95.39    2.14
   2  -1  -1   99.28    2.38
   2  -1  -1   93.77    2.33
   2  -1  -1   95.73    2.81
   2  -1  -1   97.37    2.31
  -2   1   1   95.34    2.31
  -2   1   1   97.20    2.48
  -2   1   1   94.01    2.48
  -2   1   1   97.26    2.38
  -2   1   1   98.66    2.21
  -2   1   1   97.71    2.38
  -2   1   1   95.19    2.81
  -2   1   1   97.54    2.14
  -2   1   1   96.48    2.14
  -2   1   1   94.40    2.33
  -2   1   1   97.71    2.81
   1  -1  -1  157.28    3.52
   1  -1  -1  152.81    3.96
   1  -1  -1  156.61    4.51
   1  -1  -1  157.51    3.83
   1  -1  -1  153.77    3.72
   1  -1  -1  157.35    3.72
   1  -1  -1  153.94    3.98
   1  -1  -1  151.77    3.21
   1  -1  -1  153.44    4.49
   1  -1  -1  159.60    3.72
   1  -1  -1  155.85    3.80
  -1   1   1  158.33    3.75
  -1   1   1  155.03    3.96
  -1   1   1  154.40    3.80
  -1   1   1  151.74    3.72
  -1   1   1  157.84    4.52
  -1   1   1  156.33    3.52
  -1   1   1  158.29    3.21
  -1   1   1  152.22    4.49
  -1   1   1  157.23    3.79
  -1   1   1  157.07    3.41
  -1   1   1  153.98    3.72
   0  -1  -1   23.72    0.68
   0  -1  -1   23.29    0.69
   0  -1  -1   23.42    0.48
   0  -1  -1   21.98    0.59
   0  -1  -1   23.33    0.61
   0  -1  -1   22.94    0.58
   0  -1  -1   24.25    0.57
   0  -1  -1   22.99    0.48
   0  -1  -1   24.15    0.52
   0   1   1   23.71    0.57
   0   1   1   23.19    0.68
   0   1   1   19.50    0.58
   0   1   1   23.30    0.59
   0   1   1   23.37    0.61
   0   1   1   23.83    0.52
   0   1   1   21.73    0.58
   0   1   1   24.70    0.48
   0   1   1   22.90    0.48
   0   1   1   22.90    0.69
  -1  -1  -1   13.44    0.36
  -1  -1  -1   13.14    0.37
  -1  -1  -1   12.52    0.37
  -1  -1  -1   13.61    0.32
  -1  -1  -1   13.22    0.35
  -1  -1  -1   13.69    0.35
  -1  -1  -1   14.88    0.36
  -1  -1  -1   12.88    0.42
  -1  -1  -1   13.61    0.35
   1   1   1   15.28    0.36
   1   1   1   13.23    0.37
   1   1   1   13.46    0.36
   1   1   1   13.01    0.37
   1   1   1   13.20    0.37
   1   1   1   13.33    0.32
   1   1   1   13.43    0.35
   1   1   1   13.03    0.35
   1   1   1   12.97    0.42
   1   1   1   13.49    0.29
   1   1   1   13.09    0.42
  -2  -1  -1   32.35    0.87
  -2  -1  -1   31.83    0.81
  -2  -1  -1   31.31    0.98
  -2  -1  -1   31.86    0.81
  -2  -1  -1   32.83    0.83
  -2  -1  -1   31.00    0.83
  -2  -1  -1   32.63    0.77
  -2  -1  -1   32.54    0.74
   2   1   1   31.48    0.69
   2   1   1   32.06    0.87
   2   1   1   32.51    0.83
   2   1   1   31.62    0.82
   2   1   1   32.11    0.83
   2   1   1   33.11    0.98
   2   1   1   32.65    0.87
   2   1   1   30.90    0.74
   2   1   1   32.05    0.81
  -3  -1  -1   12.71    0.40
  -3  -1  -1   13.15    0.42
  -3  -1  -1   13.54    0.43
  -3  -1  -1   12.81    0.37
  -3  -1  -1   12.32    0.38
  -3  -1  -1   13.81    0.48
  -3  -1  -1   12.39    0.47
  -3  -1  -1   12.99    0.35
  -3  -1  -1   12.31    0.39
   3   1   1   12.89    0.32
   3   1   1   12.65    0.39
   3   1   1   12.88    0.35
   3   1   1   13.05    0.42
   3   1   1   12.75    0.40
   3   1   1   12.60    0.41
   3   1   1   14.48    0.49
   3   1   1   13.29    0.38
  -4  -1  -1    0.07    0.09
  -4  -1  -1    0.05    0.11
  -4  -1  -1    0.00    0.11
  -4  -1  -1   -0.11    0.08
   4   1   1    0.05    0.10
   4   1   1    0.11    0.11
   4   1   1    0.00    0.07
  -5  -1  -1    0.38    0.15
  -5  -1  -1    0.40    0.15
   5   1   1    0.61    0.10
   5   1   1    0.59    0.16
   5   1   1    0.43    0.15
   5  -2  -1    0.54    0.14
   5  -2  -1    0.29    0.14
   5  -2  -1    0.54    0.09
  -5   2   1    0.55    0.14
  -5   2   1    0.42    0.12
  -5   2   1    0.60    0.15
   4  -2  -1    0.23    0.08
   4  -2  -1    0.33    0.11
   4  -2  -1    0.26    0.07
   4  -2  -1    0.34    0.09
   4  -2  -1    0.26    0.10
   4  -2  -1    0.30    0.11
  -4   2   1    0.22    0.11
  -4   2   1    0.25    0.08
  -4   2   1    0.23    0.10
  -4   2   1    0.13    0.10
  -4   2   1    0.32    0.09
  -4   2   1    0.16    0.09
   3  -2  -1   10.45    0.35
   3  -2  -1    9.98    0.30
   3  -2  -1   10.26    0.26
   3  -2  -1   10.07    0.32
   3  -2  -1    9.85    0.39
   3  -2  -1   10.80    0.35
   3  -2  -1   10.71    0.40
   3  -2  -1   10.58    0.31
   3  -2  -1   10.80    0.40
   3  -2  -1   10.22    0.29
   3  -2  -1   10.65    0.34
  -3   2   1   10.31    0.29
  -3   2   1   10.86    0.31
  -3   2   1   10.23    0.33
  -3   2   1   10.39    0.35
  -3   2   1   10.72    0.33
  -3   2   1   10.24    0.31
  -3   2   1   10.42    0.39
  -3   2   1   10.68    0.29
  -3   2   1   10.16    0.34
   2  -2  -1   45.79    1.16
   2  -2  -1   46.46    1.18
   2  -2  -1   45.29    1.39
   2  -2  -1   47.68    1.18
   2  -2  -1   46.86    1.39
   2  -2  -1   46.48    1.23
   2  -2  -1   46.39    1.23
   2  -2  -1   46.83    1.06
   2  -2  -1   45.41    0.98
   2  -2  -1   45.94    1.10
   2  -2  -1   47.07    1.14
  -2   2   1   46.69    1.23
  -2   2   1   46.76    1.40
  -2   2   1   46.21    1.06
  -2   2   1   46.16    1.06
  -2   2   1   46.16    1.18
  -2   2   1   46.37    1.16
  -2   2   1   46.93    1.14
  -2   2   1   48.68    1.10
  -2   2   1   47.54    1.23
  -2   2   1   48.46    1.18
   1  -2  -1   23.81    0.73
   1  -2  -1   23.72    0.60
   1  -2  -1   24.22    0.61
   1  -2  -1   23.61    0.64
   1  -2  -1   23.79    0.72
   1  -2  -1   24.40    0.55
   1  -2  -1   23.43    0.60
   1  -2  -1   23.33    0.51
   1  -2  -1   24.05    0.61
   1  -2  -1   24.51    0.57
   1  -2  -1   22.91    0.55
  -1   2   1   24.36    0.60
  -1   2   1   24.06    0.64
  -1   2   1   23.82    0.55
  -1   2   1   23.82    0.61
  -1   2   1   23.72    0.64
  -1   2   1   23.99    0.59
  -1   2   1   24.44    0.72
  -1   2   1   24.81    0.57
  -1   2   1   24.15    0.55
  -1   2   1   23.32    0.60
  -1   2   1   24.07    0.51
  -1   2   1   23.85    0.61
   0  -2  -1  100.87    2.52
   0  -2  -1   97.55    2.43
   0  -2  -1  101.75    2.37
   0  -2  -1   89.43    2.38
   0  -2  -1   97.87    2.17
   0  -2  -1  100.21    2.05
   0  -2  -1   92.90    2.42
   0  -2  -1  102.19    2.03
   0  -2  -1  100.82    2.85
   0  -2  -1   98.86    2.86
   0   2   1  102.01    2.17
   0   2   1  102.71    2.04
   0   2   1  101.62    2.37
   0   2   1  102.54    2.17
   0   2   1   99.15    2.86
   0   2   1   92.25    2.42
   0   2   1  100.84    2.03
   0   2   1   98.46    2.52
   0   2   1   97.89    2.42
   0   2   1   90.31    2.53
   0   2   1   94.58    2.38
  -1  -2  -1   31.90    0.96
  -1  -2  -1   30.68    0.96
  -1  -2  -1   32.36    0.85
  -1  -2  -1   31.69    0.73
  -1  -2  -1   32.01    0.67
  -1  -2  -1   31.94    0.81
  -1  -2  -1   31.33    0.79
  -1  -2  -1   31.79    0.81
   1   2   1   32.49    0.85
   1   2   1   32.43    0.80
   1   2   1   30.90    0.79
   1   2   1   34.38    0.96
   1   2   1   31.42    0.68
   1   2   1   30.46    0.84
   1   2   1   30.74    0.73
   1   2   1   31.63    0.81
   1   2   1   32.64    0.81
  -2  -2  -1   17.36    0.51
  -2  -2  -1   17.70    0.43
  -2  -2  -1   18.00    0.48
  -2  -2  -1   16.20    0.46
  -2  -2  -1   17.67    0.50
  -2  -2  -1   17.36    0.57
  -2  -2  -1   16.62    0.48
  -2  -2  -1   17.75    0.47
  -2  -2  -1   16.67    0.44
   2   2   1   17.29    0.43
   2   2   1   17.83    0.48
   2   2   1   17.14    0.50
   2   2   1   17.01    0.50
   2   2   1   17.57    0.57
   2   2   1   17.32    0.47
   2   2   1   17.26    0.39
   2   2   1   18.53    0.51
   2   2   1   17.48    0.48
   2   2   1   16.79    0.47
  -3  -2  -1    0.92    0.11
  -3  -2  -1    1.18    0.11
  -3  -2  -1    0.99    0.13
  -3  -2  -1    1.25    0.14
  -3  -2  -1    0.95    0.11
  -3  -2  -1    1.16    0.14
  -3  -2  -1    1.05    0.12
  -3  -2  -1    1.17    0.11
  -3  -2  -1    0.87    0.09
  -3  -2  -1    1.09    0.12
   3   2   1    1.02    0.11
   3   2   1    1.36    0.11
   3   2   1    0.59    0.11
   3   2   1    1.01    0.08
   3   2   1    1.08    0.14
   3   2   1    0.97    0.11
   3   2   1    0.90    0.11
   3   2   1    1.05    0.09
   3   2   1    1.07    0.12
   3   2   1    1.09    0.11
  -4  -2  -1    8.21    0.27
  -4  -2  -1    8.00    0.32
  -4  -2  -1    7.37    0.31
  -4  -2  -1    7.94    0.30
   4   2   1    7.41    0.31
   4   2   1    8.11    0.33
   4   2   1    8.10    0.24
  -5  -2  -1    8.26    0.37
  -5  -2  -1    8.85    0.37
   5   2   1    8.32    0.38
   5   2   1    8.32    0.36
   5   2   1    8.26    0.27
   5  -3  -1    1.22    0.17
   5  -3  -1    1.28    0.11
   5  -3  -1    1.21    0.17
  -5   3   1    1.18    0.14
  -5   3   1    1.32    0.17
  -5   3   1    1.24    0.17
   4  -3  -1   11.51    0.39
   4  -3  -1   10.93    0.41
   4  -3  -1   11.75    0.36
   4  -3  -1   12.10    0.40
   4  -3  -1   11.96    0.30
   4  -3  -1   11.06    0.36
  -4   3   1   12.12    0.36
  -4   3   1   11.92    0.34
  -4   3   1   11.57    0.34
  -4   3   1   11.34    0.39
  -4   3   1   11.15    0.39
   3  -3  -1   11.27    0.35
   3  -3  -1   12.41    0.40
   3  -3  -1   12.15    0.30
   3  -3  -1   11.98    0.33
   3  -3  -1   12.36    0.40
   3  -3  -1   12.76    0.47
   3  -3  -1   11.70    0.44
   3  -3  -1   12.06    0.38
   3  -3  -1   12.27    0.37
   3  -3  -1   12.71    0.35
  -3   3   1   12.46    0.35
  -3   3   1   12.63    0.38
  -3   3   1   12.45    0.35
  -3   3   1   12.33    0.37
  -3   3   1   12.14    0.33
  -3   3   1   12.31    0.40
  -3   3   1   12.24    0.33
  -3   3   1   12.80    0.46
  -3   3   1   12.29    0.40
   2  -3  -1   49.80    1.51
   2  -3  -1   50.29    1.07
   2  -3  -1   50.25    1.28
   2  -3  -1   49.77    1.51
   2  -3  -1   50.34    1.33
   2  -3  -1   49.89    1.25
   2  -3  -1   52.25    1.15
   2  -3  -1   51.63    1.34
   2  -3  -1   51.22    1.15
   2  -3  -1   51.61    1.28
   2  -3  -1   50.48    1.19
  -2   3   1   51.17    1.23
  -2   3   1   52.97    1.34
  -2   3   1   50.35    1.19
  -2   3   1   51.61    1.15
  -2   3   1   51.84    1.28
  -2   3   1   51.48    1.15
  -2   3   1   42.56    1.50
  -2   3   1   50.32    1.28
  -2   3   1   51.25    1.33
  -2   3   1   49.39    1.25
  -2   3   1   52.04    1.52
   1  -3  -1   91.61    2.06
   1  -3  -1   89.61    1.93
   1  -3  -1   96.62    2.29
   1  -3  -1   94.52    2.71
   1  -3  -1   92.42    2.71
   1  -3  -1   92.87    2.29
   1  -3  -1   95.15    2.39
   1  -3  -1   91.20    2.24
   1  -3  -1   93.07    2.39
   1  -3  -1   93.12    2.12
   1  -3  -1   94.74    2.06
  -1   3   1   90.44    2.39
  -1   3   1   92.46    2.71
  -1   3   1   91.10    2.06
  -1   3   1   91.23    2.39
  -1   3   1   91.34    2.24
  -1   3   1   94.34    1.93
  -1   3   1   93.56    2.06
  -1   3   1   89.94    2.29
  -1   3   1   98.94    2.29
   0  -3  -1   50.73    1.55
   0  -3  -1   52.85    1.17
   0  -3  -1   51.78    1.32
   0  -3  -1   52.53    1.09
   0  -3  -1   50.69    1.32
   0  -3  -1   51.83    1.54
   0  -3  -1   51.98    1.28
   0  -3  -1   51.88    1.17
   0  -3  -1   52.02    1.30
   0  -3  -1   52.24    1.09
   0  -3  -1   52.31    1.37
   0   3   1   50.72    1.37
   0   3   1   52.60    1.29
   0   3   1   52.61    1.17
   0   3   1   51.68    1.55
   0   3   1   52.38    1.30
   0   3   1   54.59    1.39
   0   3   1   53.84    1.32
   0   3   1   52.45    1.32
   0   3   1   53.15    1.17
   0   3   1   52.88    1.09
   0   3   1   51.88    1.09
  -1  -3  -1    2.16    0.09
  -1  -3  -1    2.22    0.11
  -1  -3  -1    2.40    0.12
  -1  -3  -1    2.02    0.13
  -1  -3  -1    2.19    0.11
  -1  -3  -1    2.20    0.12
  -1  -3  -1    2.01    0.11
  -1  -3  -1    2.04    0.10
  -1  -3  -1    2.28    0.14
  -1  -3  -1    2.06    0.10
   1   3   1    2.19    0.12
   1   3   1    1.90    0.13
   1   3   1    2.01    0.09
   1   3   1    2.19    0.11
   1   3   1    1.91    0.08
   1   3   1    2.28    0.12
   1   3   1    2.25    0.11
   1   3   1    2.41    0.12
   1   3   1    1.96    0.13
  -2  -3  -1   11.60    0.34
  -2  -3  -1   11.42    0.36
  -2  -3  -1   11.36    0.30
  -2  -3  -1   11.41    0.34
  -2  -3  -1   11.79    0.41
  -2  -3  -1   11.71    0.37
  -2  -3  -1   11.20    0.34
   2   3   1   11.35    0.41
   2   3   1   12.17    0.37
   2   3   1   10.72    0.40
   2   3   1   11.94    0.36
   2   3   1   11.44    0.35
   2   3   1   11.23    0.30
   2   3   1   11.18    0.34
   2   3   1   11.24    0.34
   2   3   1   11.47    0.27
  -3  -3  -1    9.33    0.35
  -3  -3  -1    9.48    0.31
  -3  -3  -1    9.44    0.28
  -3  -3  -1    9.28    0.39
  -3  -3  -1    9.05    0.31
  -3  -3  -1    9.38    0.34
  -3  -3  -1    8.97    0.32
   3   3   1    9.97    0.32
   3   3   1    8.98    0.31
   3   3   1    8.65    0.28
   3   3   1    9.02    0.25
   3   3   1    9.54    0.35
   3   3   1    9.52    0.38
   3   3   1    9.15    0.33
   3   3   1    9.39    0.33
  -4  -3  -1    7.78    0.31
  -4  -3  -1    7.38    0.32
  -4  -3  -1    7.15    0.27
  -4  -3  -1    7.40    0.30
   4   3   1    7.53    0.32
   4   3   1    7.02    0.23
   4   3   1    7.57    0.32
  -5  -3  -1    0.02    0.14
  -5  -3  -1    0.02    0.14
   5   3   1   -0.14    0.14
   5   3   1    0.05    0.15
   5   3   1   -0.11    0.09
   5  -4  -1   11.02    0.43
   5  -4  -1   11.58    0.32
   5  -4  -1   11.84    0.44
  -5   4   1   11.78    0.44
  -5   4   1   12.00    0.44
   4  -4  -1   -0.06    0.10
   4  -4  -1    0.09    0.09
   4  -4  -1   -0.03    0.11
   4  -4  -1   -0.03    0.06
  -4   4   1   -0.01    0.11
  -4   4   1    0.18    0.11
  -4   4   1    0.07    0.08
  -4   4   1    0.16    0.09
   3  -4  -1    7.77    0.33
   3  -4  -1    7.46    0.32
   3  -4  -1    7.78    0.28
   3  -4  -1    8.12    0.24
   3  -4  -1    7.44    0.25
   3  -4  -1    7.89    0.21
   3  -4  -1    8.11    0.29
   3  -4  -1    7.91    0.29
   3  -4  -1    7.38    0.27
  -3   4   1    7.58    0.27
  -3   4   1    7.95    0.28
  -3   4   1    7.79    0.29
  -3   4   1    7.46    0.35
  -3   4   1    8.09    0.24
  -3   4   1    7.48    0.25
  -3   4   1    7.63    0.24
  -3   4   1    7.74    0.24
  -3   4   1    7.49    0.32
  -3   4   1    7.35    0.28
   2  -4  -1   33.93    0.78
   2  -4  -1   32.36    0.85
   2  -4  -1   33.41    0.72
   2  -4  -1   33.00    0.87
   2  -4  -1   33.79    0.91
   2  -4  -1   34.34    0.78
   2  -4  -1   32.23    1.03
   2  -4  -1   33.97    0.81
   2  -4  -1   33.34    0.87
   2  -4  -1   33.16    0.91
   2  -4  -1   33.86    1.03
  -2   4   1   32.96    1.03
  -2   4   1   33.80    0.86
  -2   4   1   33.73    0.78
  -2   4   1   33.56    0.83
  -2   4   1   33.39    0.91
  -2   4   1   33.28    0.91
  -2   4   1   34.17    0.78
  -2   4   1   33.65    0.81
  -2   4   1   33.93    1.03
  -2   4   1   33.22    0.87
  -2   4   1   33.50    0.87
   1  -4  -1   36.05    1.10
   1  -4  -1   35.71    0.78
   1  -4  -1   36.31    0.92
   1  -4  -1   36.15    1.10
   1  -4  -1   36.36    0.98
   1  -4  -1   36.68    0.94
   1  -4  -1   38.06    0.84
   1  -4  -1   36.38    0.98
   1  -4  -1   35.88    0.86
   1  -4  -1   36.53    0.84
   1  -4  -1   36.80    0.93
  -1   4   1   38.38    1.11
  -1   4   1   36.39    0.84
  -1   4   1   37.44    0.93
  -1   4   1   36.70    0.98
  -1   4   1   35.02    0.91
  -1   4   1   36.41    1.10
  -1   4   1   36.85    0.94
  -1   4   1   37.00    0.84
  -1   4   1   36.42    0.98
   0  -4  -1   12.84    0.32
   0  -4  -1   12.73    0.32
   0  -4  -1   13.46    0.38
   0  -4  -1   12.23    0.29
   0  -4  -1   12.92    0.38
   0  -4  -1   12.59    0.44
   0  -4  -1   12.72    0.39
   0  -4  -1   13.65    0.41
   0  -4  -1   11.99    0.42
   0  -4  -1   13.12    0.38
   0   4   1   12.94    0.38
   0   4   1   12.04    0.38
   0   4   1   13.76    0.41
   0   4   1   12.49    0.42
   0   4   1   13.56    0.38
   0   4   1   12.74    0.44
   0   4   1   12.59    0.32
   0   4   1   12.62    0.32
   0   4   1   12.05    0.36
  -1  -4  -1   31.59    0.68
  -1  -4  -1   31.27    0.81
  -1  -4  -1   31.52    0.83
  -1  -4  -1   30.86    0.82
  -1  -4  -1   32.63    0.97
  -1  -4  -1   32.28    0.87
  -1  -4  -1   31.51    0.74
  -1  -4  -1   31.79    0.86
  -1  -4  -1   31.96    0.98
   1   4   1   30.25    0.80
   1   4   1   31.90    0.97
   1   4   1   31.84    0.83
   1   4   1   31.98    0.83
   1   4   1   32.75    0.87
   1   4   1   32.36    0.83
   1   4   1   32.38    0.98
   1   4   1   31.22    0.81
   1   4   1   31.43    0.74
   1   4   1   31.14    0.86
   1   4   1   31.59    0.73
   1   4   1   31.17    0.68
  -2  -4  -1   10.53    0.33
  -2  -4  -1   10.35    0.29
  -2  -4  -1   10.19    0.34
  -2  -4  -1   10.47    0.34
  -2  -4  -1   10.11    0.38
  -2  -4  -1    9.57    0.31
  -2  -4  -1    9.95    0.32
   2   4   1   10.10    0.33
   2   4   1    9.88    0.32
   2   4   1   11.09    0.39
   2   4   1   10.70    0.35
   2   4   1    9.95    0.34
   2   4   1   10.03    0.32
   2   4   1   10.16    0.25
   2   4   1   10.02    0.28
   2   4   1   10.52    0.38
  -3  -4  -1    2.11    0.16
  -3  -4  -1    1.96    0.15
  -3  -4  -1    1.83    0.13
  -3  -4  -1    1.91    0.15
  -3  -4  -1    1.99    0.16
  -3  -4  -1    1.77    0.14
   3   4   1    2.22    0.17
   3   4   1    2.06    0.12
   3   4   1    1.51    0.14
   3   4   1    1.78    0.13
   3   4   1    1.84    0.15
   3   4   1    1.64    0.14
  -4  -4  -1    0.27    0.13
  -4  -4  -1    0.20    0.12
   4   4   1    0.23    0.13
   4   4   1    0.26    0.08
   4   4   1    0.08    0.12
  -5  -4  -1    0.76    0.17
  -5  -4  -1    0.53    0.17
   5   4   1    0.65    0.18
   5   4   1    0.50    0.16
   5  -5  -1   -0.02    0.14
   5  -5  -1   -0.05    0.14
   5  -5  -1   -0.01    0.09
  -5   5   1   -0.01    0.14
  -5   5   1   -0.02    0.14
   4  -5  -1    0.71    0.12
   4  -5  -1    0.66    0.08
   4  -5  -1    0.64    0.13
   4  -5  -1    0.73    0.13
  -4   5   1    0.69    0.13
  -4   5   1    0.82    0.11
  -4   5   1    0.81    0.10
  -4   5   1    0.56    0.13
   3  -5  -1    3.74    0.17
   3  -5  -1    3.64    0.14
   3  -5  -1    3.76    0.20
   3  -5  -1    3.47    0.19
   3  -5  -1    3.88    0.16
   3  -5  -1    3.79    0.19
   3  -5  -1    3.76    0.24
   3  -5  -1    3.45    0.19
  -3   5   1    3.72    0.15
  -3   5   1    3.68    0.19
  -3   5   1    3.72    0.18
  -3   5   1    3.62    0.16
  -3   5   1    3.61    0.19
  -3   5   1    3.65    0.20
  -3   5   1    3.61    0.19
  -3   5   1    3.73    0.24
  -3   5   1    3.71    0.16
  -3   5   1    3.40    0.22
   2  -5  -1   15.42    0.47
   2  -5  -1   16.02    0.40
   2  -5  -1   15.87    0.40
   2  -5  -1   16.02    0.42
   2  -5  -1   15.94    0.45
   2  -5  -1   15.95    0.53
   2  -5  -1   16.61    0.48
   2  -5  -1   15.81    0.53
   2  -5  -1   15.98    0.37
   2  -5  -1   15.79    0.45
  -2   5   1   15.36    0.47
  -2   5   1   16.01    0.40
  -2   5   1   15.71    0.54
  -2   5   1   15.61    0.44
  -2   5   1   15.75    0.40
  -2   5   1   16.13    0.42
  -2   5   1   16.05    0.47
  -2   5   1   15.45    0.45
  -2   5   1   15.77    0.53
   1  -5  -1    2.51    0.14
   1  -5  -1    2.44    0.14
   1  -5  -1    2.44    0.09
   1  -5  -1    2.44    0.13
   1  -5  -1    2.73    0.11
   1  -5  -1    2.40    0.16
   1  -5  -1    2.48    0.16
   1  -5  -1    2.45    0.14
   1  -5  -1    2.30    0.11
   1  -5  -1    2.33    0.14
  -1   5   1    2.45    0.16
  -1   5   1    2.60    0.14
  -1   5   1    2.59    0.11
  -1   5   1    2.46    0.13
  -1   5   1    2.51    0.13
  -1   5   1    2.37    0.13
  -1   5   1    2.47    0.15
  -1   5   1    2.37    0.11
  -1   5   1    2.43    0.13
  -1   5   1    2.54    0.14
   0  -5  -1   33.78    0.93
   0  -5  -1   33.62    0.73
   0  -5  -1   33.72    0.90
   0  -5  -1   33.14    0.79
   0  -5  -1   35.01    0.90
   0  -5  -1   33.73    0.88
   0  -5  -1   33.20    1.04
   0  -5  -1   33.34    1.05
   0  -5  -1   35.35    0.95
   0  -5  -1   33.55    0.78
   0   5   1   34.85    0.90
   0   5   1   33.84    0.79
   0   5   1   34.00    1.05
   0   5   1   34.77    0.93
   0   5   1   33.24    0.78
   0   5   1   32.84    0.85
   0   5   1   33.09    1.04
   0   5   1   36.09    0.91
   0   5   1   32.78    0.87
   0   5   1   33.91    0.95
  -1  -5  -1   19.26    0.54
  -1  -5  -1   19.01    0.64
  -1  -5  -1   19.04    0.55
  -1  -5  -1   19.77    0.64
  -1  -5  -1   19.65    0.44
  -1  -5  -1   20.19    0.48
  -1  -5  -1   19.75    0.55
  -1  -5  -1   18.36    0.56
  -1  -5  -1   20.27    0.58
   1   5   1   20.16    0.55
   1   5   1   18.97    0.64
   1   5   1   19.62    0.53
   1   5   1   19.31    0.48
   1   5   1   21.05    0.56
   1   5   1   20.36    0.58
   1   5   1   18.59    0.52
   1   5   1   19.34    0.48
   1   5   1   18.26    0.57
   1   5   1   19.33    0.64
   1   5   1   19.48    0.43
  -2  -5  -1    1.38    0.11
  -2  -5  -1    1.53    0.13
  -2  -5  -1    1.55    0.13
  -2  -5  -1    1.05    0.11
  -2  -5  -1    1.42    0.12
  -2  -5  -1    1.30    0.14
  -2  -5  -1    1.42    0.10
   2   5   1    1.44    0.14
   2   5   1    1.26    0.10
   2   5   1    1.46    0.10
   2   5   1    1.25    0.11
   2   5   1    1.55    0.13
   2   5   1    1.53    0.13
   2   5   1    1.55    0.09
   2   5   1    1.49    0.12
   2   5   1    1.82    0.14
   2   5   1    1.81    0.17
  -3  -5  -1    0.05    0.09
  -3  -5  -1    0.01    0.09
  -3  -5  -1    0.01    0.09
  -3  -5  -1    0.04    0.08
  -3  -5  -1   -0.01    0.09
   3   5   1   -0.03    0.06
   3   5   1    0.04    0.10
   3   5   1   -0.05    0.09
   3   5   1   -0.09    0.09
   3   5   1    0.13    0.08
  -4  -5  -1   11.12    0.42
  -4  -5  -1   10.80    0.41
   4   5   1   11.23    0.42
   4   5   1   11.75    0.31
   4   5   1   11.46    0.43
   5  -6  -1    2.03    0.14
   5  -6  -1    2.02    0.22
   5  -6  -1    2.05    0.21
  -5   6   1    2.14    0.21
  -5   6   1    1.92    0.21
   4  -6  -1    2.04    0.18
   4  -6  -1    2.16    0.13
   4  -6  -1    2.23    0.18
   4  -6  -1    1.87    0.15
  -4   6   1    2.14    0.15
  -4   6   1    2.07    0.15
  -4   6   1    2.20    0.18
  -4   6   1    1.98    0.18
   3  -6  -1    2.89    0.16
   3  -6  -1    2.77    0.13
   3  -6  -1    2.91    0.15
   3  -6  -1    2.95    0.18
   3  -6  -1    2.70    0.18
   3  -6  -1    2.82    0.19
   3  -6  -1    2.86    0.18
   3  -6  -1    3.01    0.16
   3  -6  -1    3.39    0.20
  -3   6   1    3.00    0.15
  -3   6   1    2.96    0.19
  -3   6   1    2.55    0.18
  -3   6   1    3.08    0.17
  -3   6   1    2.91    0.19
  -3   6   1    2.94    0.14
  -3   6   1    2.86    0.15
  -3   6   1    2.76    0.21
   2  -6  -1    6.56    0.28
   2  -6  -1    6.56    0.22
   2  -6  -1    6.74    0.26
   2  -6  -1    6.41    0.25
   2  -6  -1    6.50    0.21
   2  -6  -1    6.57    0.24
   2  -6  -1    6.73    0.19
   2  -6  -1    6.61    0.22
   2  -6  -1    6.68    0.25
  -2   6   1    6.44    0.26
  -2   6   1    6.83    0.33
  -2   6   1    7.12    0.25
  -2   6   1    7.21    0.27
  -2   6   1    6.82    0.21
  -2   6   1    6.60    0.21
  -2   6   1    6.99    0.30
  -2   6   1    6.82    0.21
  -2   6   1    6.29    0.24
   1  -6  -1   36.18    0.80
   1  -6  -1   37.26    1.02
   1  -6  -1   37.22    0.87
   1  -6  -1   36.88    0.98
   1  -6  -1   36.17    1.01
   1  -6  -1   36.69    1.14
   1  -6  -1   37.70    0.96
   1  -6  -1   37.60    0.87
  -1   6   1   36.99    0.87
  -1   6   1   38.19    1.02
  -1   6   1   36.12    0.95
  -1   6   1   37.43    0.86
  -1   6   1   37.79    1.16
  -1   6   1   36.69    1.14
  -1   6   1   36.07    0.95
  -1   6   1   37.09    0.97
  -1   6   1   37.58    1.03
  -1   6   1   38.18    0.98
   0  -6  -1   20.90    0.53
   0  -6  -1   21.88    0.64
   0  -6  -1   20.65    0.52
   0  -6  -1   22.14    0.61
   0  -6  -1   21.71    0.63
   0  -6  -1   21.37    0.48
   0  -6  -1   22.21    0.60
   0  -6  -1   20.30    0.69
   0   6   1   21.32    0.59
   0   6   1   23.05    0.62
   0   6   1   20.92    0.52
   0   6   1   21.00    0.72
   0   6   1   20.47    0.52
   0   6   1   20.67    0.56
   0   6   1   21.15    0.64
   0   6   1   21.72    0.61
   0   6   1   22.31    0.63
   0   6   1   21.09    0.69
  -1  -6  -1   18.96    0.65
  -1  -6  -1   18.77    0.58
  -1  -6  -1   19.11    0.56
  -1  -6  -1   20.50    0.45
  -1  -6  -1   20.50    0.61
  -1  -6  -1   19.42    0.57
  -1  -6  -1   20.19    0.50
   1   6   1   19.33    0.67
   1   6   1   19.90    0.49
   1   6   1   20.54    0.66
   1   6   1   19.74    0.54
   1   6   1   19.12    0.61
   1   6   1   19.73    0.55
   1   6   1   19.72    0.50
   1   6   1   19.39    0.57
   1   6   1   20.14    0.60
  -2  -6  -1   10.49    0.27
  -2  -6  -1   10.04    0.31
  -2  -6  -1   11.07    0.38
  -2  -6  -1   10.46    0.35
  -2  -6  -1   11.06    0.38
  -2  -6  -1   10.05    0.34
  -2  -6  -1   10.60    0.36
   2   6   1   10.22    0.31
   2   6   1   10.40    0.30
   2   6   1    9.94    0.35
   2   6   1   10.24    0.34
   2   6   1   11.19    0.36
   2   6   1   10.50    0.42
   2   6   1   10.33    0.26
   2   6   1   10.43    0.37
   2   6   1   10.71    0.37
   2   6   1    9.74    0.35
   2   6   1   10.85    0.42
  -3  -6  -1   11.46    0.39
  -3  -6  -1   11.19    0.30
  -3  -6  -1   11.35    0.40
  -3  -6  -1   11.34    0.34
  -3  -6  -1   10.60    0.38
   3   6   1   10.75    0.34
   3   6   1   11.85    0.30
   3   6   1   11.04    0.39
   3   6   1   10.67    0.39
  -4  -6  -1    1.28    0.17
  -4  -6  -1    0.98    0.16
  -4  -6  -1    1.22    0.11
   4   6   1    1.00    0.10
   4   6   1    1.04    0.17
   4   6   1    1.42    0.19
   5  -7  -1    2.94    0.25
   5  -7  -1    3.51    0.25
   5  -7  -1    3.16    0.18
  -5   7   1    3.25    0.26
  -5   7   1    3.26    0.26
   4  -7  -1    0.12    0.11
   4  -7  -1    0.13    0.13
   4  -7  -1    0.04    0.08
   4  -7  -1    0.08    0.12
  -4   7   1    0.31    0.14
  -4   7   1    0.09    0.10
  -4   7   1    0.04    0.12
   3  -7  -1    8.48    0.28
   3  -7  -1    7.81    0.31
   3  -7  -1    8.45    0.33
   3  -7  -1    8.25    0.24
   3  -7  -1    7.89    0.28
   3  -7  -1    8.34    0.32
   3  -7  -1    8.35    0.27
  -3   7   1    8.80    0.27
  -3   7   1    8.39    0.32
  -3   7   1    8.75    0.34
  -3   7   1    8.75    0.27
  -3   7   1    8.79    0.32
  -3   7   1    8.70    0.27
   2  -7  -1   11.30    0.37
   2  -7  -1   11.07    0.38
   2  -7  -1   11.60    0.45
   2  -7  -1   11.29    0.29
   2  -7  -1   11.02    0.32
   2  -7  -1   11.46    0.37
   2  -7  -1   11.09    0.34
   2  -7  -1   11.34    0.39
   2  -7  -1   12.08    0.33
  -2   7   1   12.10    0.38
  -2   7   1   11.73    0.32
  -2   7   1   11.64    0.44
  -2   7   1   11.20    0.37
  -2   7   1   11.55    0.47
  -2   7   1   11.52    0.39
  -2   7   1   11.37    0.40
  -2   7   1   11.02    0.32
   1  -7  -1   22.57    0.66
   1  -7  -1   22.18    0.74
   1  -7  -1   23.26    0.68
   1  -7  -1   21.94    0.50
   1  -7  -1   22.41    0.56
   1  -7  -1   22.84    0.55
   1  -7  -1   22.54    0.73
   1  -7  -1   21.62    0.63
   1  -7  -1   22.54    0.64
  -1   7   1   21.95    0.75
  -1   7   1   22.50    0.55
  -1   7   1   22.06    0.73
  -1   7   1   21.74    0.66
  -1   7   1   21.82    0.64
  -1   7   1   21.58    0.61
  -1   7   1   21.16    0.67
  -1   7   1   22.34    0.55
  -1   7   1   22.34    0.61
   0  -7  -1    1.32    0.13
   0  -7  -1    1.30    0.10
   0  -7  -1    1.25    0.12
   0  -7  -1    1.24    0.13
   0  -7  -1    1.13    0.13
   0  -7  -1    1.13    0.07
   0  -7  -1    1.34    0.13
   0  -7  -1    1.17    0.13
   0  -7  -1    1.06    0.09
   0   7   1    1.38    0.13
   0   7   1    1.07    0.09
   0   7   1    1.12    0.10
   0   7   1    1.27    0.13
   0   7   1    1.27    0.13
   0   7   1    1.13    0.13
   0   7   1    1.21    0.12
   0   7   1    1.23    0.09
  -1  -7  -1   20.93    0.63
  -1  -7  -1   20.72    0.62
  -1  -7  -1   18.79    0.64
  -1  -7  -1   21.34    0.71
  -1  -7  -1   20.31    0.63
  -1  -7  -1   21.03    0.48
  -1  -7  -1   21.03    0.53
   1   7   1   21.06    0.72
   1   7   1   21.31    0.53
   1   7   1   20.83    0.58
   1   7   1   20.95    0.59
   1   7   1   20.35    0.67
   1   7   1   20.69    0.62
   1   7   1   20.90    0.71
   1   7   1   21.21    0.65
   1   7   1   21.41    0.53
  -2  -7  -1    4.96    0.24
  -2  -7  -1    5.39    0.25
  -2  -7  -1    5.52    0.26
  -2  -7  -1    5.20    0.17
  -2  -7  -1    5.67    0.22
  -2  -7  -1    6.17    0.30
   2   7   1    5.76    0.26
   2   7   1    5.10    0.20
   2   7   1    5.23    0.25
   2   7   1    4.76    0.25
   2   7   1    5.19    0.26
   2   7   1    5.17    0.29
   2   7   1    5.53    0.21
  -3  -7  -1   -0.11    0.10
  -3  -7  -1    0.07    0.07
  -3  -7  -1    0.17    0.11
   3   7   1    0.00    0.07
   3   7   1   -0.09    0.12
   3   7   1    0.02    0.11
   3   7   1    0.17    0.12
   3   7   1    0.12    0.10
  -4  -7  -1    0.46    0.15
  -4  -7  -1    0.16    0.14
  -4  -7  -1    0.31    0.09
   4   7   1    0.51    0.16
   4   7   1    0.42    0.15
   5  -8  -1    0.14    0.16
   5  -8  -1    0.06    0.15
   5  -8  -1    0.10    0.10
  -5   8   1    0.06    0.16
  -5   8   1    0.38    0.16
   4  -8  -1    2.47    0.21
   4  -8  -1    2.57    0.15
   4  -8  -1    2.09    0.19
  -4   8   1    2.84    0.22
  -4   8   1    2.62    0.21
   3  -8  -1    5.31    0.22
   3  -8  -1    4.34    0.23
   3  -8  -1    5.01    0.25
   3  -8  -1    5.04    0.18
   3  -8  -1    4.65    0.22
  -3   8   1    4.99    0.21
  -3   8   1    5.21    0.25
  -3   8   1    4.49    0.24
  -3   8   1    4.67    0.19
   2  -8  -1    2.35    0.17
   2  -8  -1    2.57    0.18
   2  -8  -1    2.21    0.13
   2  -8  -1    2.02    0.14
   2  -8  -1    2.00    0.14
   2  -8  -1    2.34    0.18
   2  -8  -1    1.98    0.11
   2  -8  -1    2.21    0.17
  -2   8   1    2.59    0.23
  -2   8   1    2.06    0.19
  -2   8   1    1.95    0.17
  -2   8   1    2.26    0.16
  -2   8   1    2.12    0.14
  -2   8   1    2.27    0.18
  -2   8   1    1.92    0.16
   1  -8  -1    6.09    0.22
   1  -8  -1    4.78    0.27
   1  -8  -1    5.83    0.30
   1  -8  -1    5.87    0.26
   1  -8  -1    6.64    0.22
   1  -8  -1    6.54    0.28
   1  -8  -1    5.73    0.31
   1  -8  -1    6.45    0.19
  -1   8   1    4.64    0.28
  -1   8   1    5.94    0.25
  -1   8   1    6.98    0.26
  -1   8   1    6.29    0.30
  -1   8   1    6.23    0.27
  -1   8   1    5.99    0.27
  -1   8   1    6.74    0.34
  -1   8   1    6.35    0.21
   0  -8  -1   33.18    0.88
   0  -8  -1   32.91    0.72
   0  -8  -1   32.12    1.04
   0  -8  -1   32.71    0.79
   0  -8  -1   32.16    0.93
   0  -8  -1   31.71    0.89
   0  -8  -1   35.01    0.95
   0  -8  -1   32.14    0.78
   0   8   1   32.34    1.04
   0   8   1   33.64    0.94
   0   8   1   31.90    0.78
   0   8   1   32.02    0.87
   0   8   1   31.39    0.94
   0   8   1   32.05    0.89
   0   8   1   32.46    1.06
   0   8   1   31.87    0.84
  -1  -8  -1   13.56    0.48
  -1  -8  -1   13.42    0.50
  -1  -8  -1   14.74    0.40
  -1  -8  -1   14.55    0.54
  -1  -8  -1   14.12    0.49
  -1  -8  -1   13.43    0.49
  -1  -8  -1   14.55    0.35
   1   8   1   14.11    0.54
   1   8   1   13.66    0.39
   1   8   1   14.61    0.55
   1   8   1   13.83    0.49
   1   8   1   14.77    0.44
   1   8   1   13.68    0.47
   1   8   1   13.81    0.52
   1   8   1   15.14    0.46
  -2  -8  -1    4.45    0.25
  -2  -8  -1    4.29    0.17
  -2  -8  -1    4.10    0.24
  -2  -8  -1    4.35    0.20
   2   8   1    4.09    0.26
   2   8   1    4.42    0.26
   2   8   1    4.56    0.19
   2   8   1    4.68    0.25
  -3  -8  -1    0.30    0.08
  -3  -8  -1    0.38    0.14
  -3  -8  -1    0.33    0.13
   3   8   1    0.21    0.13
   3   8   1    0.22    0.14
   3   8   1    0.51    0.14
  -4  -8  -1    1.16    0.19
  -4  -8  -1    1.15    0.19
  -4  -8  -1    1.36    0.12
   4   8   1    1.09    0.19
   4   8   1    1.25    0.19
   4   8   1    1.09    0.19
   4  -9  -1    0.95    0.17
   4  -9  -1    0.86    0.11
   4  -9  -1    0.93    0.16
  -4   9   1    1.06    0.17
  -4   9   1    0.61    0.16
   3  -9  -1   -0.01    0.12
   3  -9  -1   -0.10    0.09
   3  -9  -1    0.04    0.08
   3  -9  -1   -0.02    0.11
  -3   9   1    0.01    0.11
  -3   9   1    0.03    0.07
  -3   9   1    0.01    0.09
  -3   9   1   -0.12    0.11
   2  -9  -1    8.01    0.27
   2  -9  -1    7.48    0.27
   2  -9  -1    7.88    0.29
   2  -9  -1    7.27    0.23
   2  -9  -1    7.97    0.32
   2  -9  -1    7.74    0.31
  -2   9   1    7.41    0.30
  -2   9   1    7.40    0.31
  -2   9   1    7.63    0.34
  -2   9   1    8.08    0.27
  -2   9   1    7.21    0.26
   1  -9  -1    0.82    0.15
   1  -9  -1    0.89    0.10
   1  -9  -1    0.71    0.13
   1  -9  -1    0.94    0.11
   1  -9  -1    0.76    0.08
   1  -9  -1    1.07    0.16
   1  -9  -1    0.94    0.13
  -1   9   1    0.65    0.14
  -1   9   1    0.89    0.10
  -1   9   1    0.94    0.10
  -1   9   1    0.79    0.10
  -1   9   1    1.09    0.14
  -1   9   1    0.99    0.14
  -1   9   1    0.90    0.15
  -1   9   1    0.89    0.14
  -1   9   1    0.69    0.13
   0  -9  -1   17.29    0.56
   0  -9  -1   18.11    0.57
   0  -9  -1   17.55    0.47
   0  -9  -1   17.10    0.41
   0  -9  -1   17.26    0.53
   0  -9  -1   17.54    0.46
   0  -9  -1   17.99    0.55
   0   9   1   17.01    0.46
   0   9   1   17.29    0.52
   0   9   1   17.04    0.54
   0   9   1   16.86    0.56
   0   9   1   17.69    0.57
   0   9   1   17.20    0.63
   0   9   1   17.08    0.50
   0   9   1   17.25    0.46
  -1  -9  -1    0.06    0.06
  -1  -9  -1    0.09    0.12
  -1  -9  -1    0.12    0.11
  -1  -9  -1    0.05    0.08
   1   9   1    0.09    0.08
   1   9   1    0.05    0.12
   1   9   1   -0.10    0.09
   1   9   1    0.04    0.08
   1   9   1    0.01    0.11
  -2  -9  -1    2.47    0.22
  -2  -9  -1    2.48    0.23
  -2  -9  -1    2.69    0.14
   2   9   1    2.74    0.17
   2   9   1    2.46    0.21
   2   9   1    2.43    0.21
  -3  -9  -1    2.02    0.21
  -3  -9  -1    2.20    0.15
  -3  -9  -1    1.84    0.21
   3   9   1    2.26    0.21
   3   9   1    1.87    0.21
   4 -10  -1    0.05    0.10
   4 -10  -1    0.03    0.14
   4 -10  -1   -0.07    0.15
  -4  10   1    0.12    0.15
  -4  10   1   -0.07    0.14
   3 -10  -1    2.06    0.20
   3 -10  -1    1.45    0.16
   3 -10  -1    1.80    0.20
   3 -10  -1    1.90    0.13
  -3  10   1    1.53    0.18
  -3  10   1    2.01    0.20
   2 -10  -1    3.49    0.26
   2 -10  -1    3.29    0.20
   2 -10  -1    3.28    0.16
   2 -10  -1    3.17    0.23
  -2  10   1    3.44    0.18
  -2  10   1    3.25    0.24
  -2  10   1    3.53    0.23
   1 -10  -1    4.29    0.16
   1 -10  -1    4.25    0.20
   1 -10  -1    4.12    0.24
   1 -10  -1    3.48    0.26
   1 -10  -1    4.04    0.19
  -1  10   1    4.19    0.25
  -1  10   1    3.77    0.26
  -1  10   1    3.98    0.23
  -1  10   1    4.28    0.21
  -1  10   1    4.72    0.25
  -1  10   1    4.28    0.19
   0 -10  -1    4.67    0.21
   0 -10  -1    4.74    0.25
   0 -10  -1    4.83    0.21
   0 -10  -1    5.09    0.25
   0 -10  -1    5.00    0.18
   0  10   1    5.27    0.26
   0  10   1    4.86    0.27
   0  10   1    4.94    0.21
   0  10   1    4.98    0.22
   0  10   1    5.12    0.27
  -1 -10  -1    2.61    0.15
  -1 -10  -1    2.77    0.22
  -1 -10  -1    2.41    0.21
   1  10   1    2.83    0.23
   1  10   1    2.81    0.17
   1  10   1    3.03    0.23
  -2 -10  -1    1.21    0.21
  -2 -10  -1    1.03    0.10
  -2 -10  -1    1.28    0.20
   2  10   1    1.54    0.19
   2  10   1    1.31    0.20
  -3 -10  -1    0.05    0.09
  -3 -10  -1    0.03    0.15
  -3 -10  -1    0.24    0.18
   3  10   1    0.08    0.16
   3  10   1    0.19    0.16
   4 -11  -1    0.69    0.20
   4 -11  -1    0.63    0.19
   4 -11  -1    0.79    0.12
  -4  11   1    0.59    0.19
  -4  11   1    0.76    0.18
   3 -11  -1    1.38    0.20
   3 -11  -1    1.48    0.20
   3 -11  -1    1.69    0.13
  -3  11   1    1.39    0.19
  -3  11   1    1.67    0.20
   2 -11  -1    1.13    0.20
   2 -11  -1    1.28    0.18
   2 -11  -1    0.95    0.16
   2 -11  -1    1.53    0.12
  -2  11   1    1.32    0.18
  -2  11   1    1.31    0.18
   1 -11  -1    0.02    0.07
   1 -11  -1    0.08    0.13
   1 -11  -1    0.06    0.12
  -1  11   1    0.10    0.09
  -1  11   1    0.04    0.09
  -1  11   1    0.06    0.12
  -1  11   1    0.00    0.12
  -1  11   1    0.06    0.12
   0 -11  -1   41.67    1.13
   0 -11  -1   40.07    1.14
   0 -11  -1   42.47    0.93
   0  11   1   39.58    1.14
   0  11   1   43.86    1.13
  -1 -11  -1    0.03    0.12
  -1 -11  -1   -0.03    0.08
  -1 -11  -1    0.13    0.14
   1  11   1    0.06    0.12
   1  11   1    0.01    0.12
  -2 -11  -1    0.06    0.17
  -2 -11  -1    0.28    0.17
  -2 -11  -1    0.41    0.09
   2  11   1    0.20    0.15
   2  11   1    0.11    0.16
   3 -12  -1    0.28    0.17
   3 -12  -1    0.15    0.10
   3 -12  -1    0.04    0.18
  -3  12   1    0.46    0.17
  -3  12   1    0.15    0.17
   2 -12  -1    0.78    0.11
   2 -12  -1    0.53    0.19
   2 -12  -1    0.58    0.17
  -2  12   1    0.63    0.16
  -2  12   1    0.60    0.17
   1 -12  -1    5.42    0.20
   1 -12  -1    5.42    0.29
   1 -12  -1    5.03    0.31
  -1  12   1    5.81    0.30
  -1  12   1    5.27    0.28
  -1  12   1    5.80    0.29
   0 -12  -1    0.97    0.16
   0 -12  -1    0.49    0.15
   0 -12  -1    0.55    0.10
   0  12   1    0.54    0.15
   0  12   1    0.65    0.15
  -1 -12  -1    0.28    0.09
  -1 -12  -1    0.13    0.14
  -1 -12  -1    0.44    0.16
   1  12   1    0.29    0.14
   1  12   1    0.26    0.14
  -2 -12  -1    0.71    0.11
  -2 -12  -1    1.00    0.20
  -2 -12  -1    0.91    0.21
   2  12   1    0.73    0.19
   2  12   1    0.67    0.18
   2 -13  -1    2.28    0.15
   2 -13  -1    2.00    0.25
   2 -13  -1    2.38    0.24
  -2  13   1    2.22    0.23
  -2  13   1    2.62    0.24
   1 -13  -1    1.12    0.18
   1 -13  -1    1.39    0.20
   1 -13  -1    0.87    0.11
  -1  13   1    1.00    0.19
  -1  13   1    0.77    0.16
   0 -13  -1    1.29    0.18
   0 -13  -1    1.31    0.12
   0 -13  -1    0.99    0.17
   0  13   1    1.33    0.19
   0  13   1    1.06    0.17
  -1 -13  -1    0.49    0.17
  -1 -13  -1    0.38    0.10
  -1 -13  -1    0.56    0.16
   1  13   1    0.28    0.15
   1  13   1    0.69    0.17
   1 -14  -1    1.76    0.22
   1 -14  -1    1.71    0.21
   1 -14  -1    1.88    0.14
  -1  14   1    1.70    0.21
  -1  14   1    1.47    0.22
   0  14  -2    1.41    0.19
   0 -14   2    1.37    0.19
   0 -14   2    1.25    0.12
  -1  14  -2    0.74    0.17
   1 -14   2    0.74    0.11
   1 -14   2    0.75    0.18
   1  13  -2    2.65    0.22
   1  13  -2    2.28    0.21
  -1 -13   2    2.36    0.16
  -1 -13   2    1.91    0.20
   0  13  -2    0.30    0.14
   0  13  -2    0.12    0.13
   0  13  -2    0.06    0.13
   0 -13   2    0.19    0.13
   0 -13   2    0.07    0.09
  -1  13  -2    0.59    0.15
  -1  13  -2    0.61    0.15
   1 -13   2    0.53    0.16
   1 -13   2    0.31    0.10
  -2  13  -2    3.89    0.26
  -2  13  -2    4.32    0.27
   2 -13   2    3.96    0.19
   2 -13   2    3.73    0.29
   2  12  -2    0.81    0.16
   2  12  -2    0.83    0.18
  -2 -12   2    0.76    0.20
  -2 -12   2    0.79    0.11
   1  12  -2    0.26    0.13
   1  12  -2    0.37    0.14
  -1 -12   2    0.02    0.12
  -1 -12   2    0.37    0.09
  -1 -12   2    0.20    0.13
   0  12  -2    1.50    0.17
   0  12  -2    1.16    0.16
   0  12  -2    1.78    0.17
   0 -12   2    1.28    0.11
   0 -12   2    1.55    0.18
   0 -12   2    1.32    0.16
  -1  12  -2    4.11    0.26
  -1  12  -2    5.06    0.26
   1 -12   2    5.19    0.27
   1 -12   2    5.00    0.19
   1 -12   2    4.86    0.28
  -2  12  -2    2.05    0.20
  -2  12  -2    1.93    0.19
   2 -12   2    2.20    0.21
   2 -12   2    1.93    0.14
   2 -12   2    1.87    0.21
  -3  12  -2    0.12    0.14
  -3  12  -2    0.16    0.15
   3 -12   2    0.04    0.16
   3 -12   2    0.10    0.10
   3  11  -2    0.00    0.15
   3  11  -2    0.09    0.16
  -3 -11   2    0.25    0.10
  -3 -11   2    0.07    0.16
   2  11  -2    0.06    0.12
   2  11  -2    0.09    0.14
  -2 -11   2    0.00    0.14
  -2 -11   2   -0.14    0.16
  -2 -11   2    0.22    0.09
   1  11  -2    2.05    0.20
   1  11  -2    2.45    0.19
   1  11  -2    2.03    0.18
  -1 -11   2    2.25    0.19
  -1 -11   2    2.22    0.20
  -1 -11   2    2.16    0.13
   0  11  -2    5.90    0.23
   0  11  -2    5.38    0.26
   0  11  -2    5.76    0.29
   0  11  -2    5.60    0.26
   0  11  -2    5.34    0.31
   0 -11   2    5.24    0.19
   0 -11   2    5.32    0.23
   0 -11   2    5.30    0.27
   0 -11   2    5.53    0.27
  -1  11  -2    0.04    0.13
  -1  11  -2    0.17    0.11
  -1  11  -2    0.09    0.11
  -1  11  -2    0.15    0.15
   1 -11   2    0.03    0.12
   1 -11   2    0.00    0.13
   1 -11   2    0.05    0.07
   1 -11   2    0.03    0.09
  -2  11  -2    0.26    0.12
  -2  11  -2    0.70    0.14
  -2  11  -2    0.40    0.14
   2 -11   2    0.51    0.15
   2 -11   2    0.40    0.13
   2 -11   2    0.50    0.09
   2 -11   2    0.43    0.14
  -3  11  -2    1.19    0.17
  -3  11  -2    1.41    0.18
   3 -11   2    1.34    0.18
   3 -11   2    1.37    0.18
   3 -11   2    1.58    0.14
  -4  11  -2   -0.04    0.15
   3  10  -2    0.08    0.14
   3  10  -2    0.05    0.14
  -3 -10   2    0.29    0.15
  -3 -10   2    0.00    0.13
   2  10  -2    3.60    0.26
   2  10  -2    3.30    0.29
   2  10  -2    2.97    0.23
  -2 -10   2    3.11    0.25
  -2 -10   2    3.16    0.15
  -2 -10   2    3.57    0.26
   1  10  -2    3.36    0.16
   1  10  -2    3.38    0.20
   1  10  -2    2.82    0.20
   1  10  -2    3.47    0.25
   1  10  -2    3.40    0.21
   1  10  -2    3.20    0.25
  -1 -10   2    3.04    0.21
  -1 -10   2    3.15    0.14
  -1 -10   2    3.36    0.24
   0  10  -2   -0.06    0.10
   0  10  -2   -0.04    0.07
   0  10  -2    0.07    0.10
   0  10  -2    0.05    0.11
   0  10  -2    0.01    0.12
   0  10  -2    0.01    0.09
   0  10  -2    0.04    0.08
   0 -10   2   -0.04    0.07
   0 -10   2   -0.17    0.05
   0 -10   2    0.09    0.10
   0 -10   2    0.06    0.10
   0 -10   2   -0.06    0.07
  -1  10  -2    1.51    0.12
  -1  10  -2    1.84    0.15
  -1  10  -2    1.76    0.19
  -1  10  -2    1.51    0.17
  -1  10  -2    1.34    0.15
  -1  10  -2    1.63    0.18
  -1  10  -2    1.56    0.11
   1 -10   2    1.56    0.13
   1 -10   2    1.44    0.15
   1 -10   2    1.87    0.18
   1 -10   2    1.63    0.13
   1 -10   2    1.76    0.12
  -2  10  -2   19.22    0.68
  -2  10  -2   18.37    0.58
  -2  10  -2   19.32    0.56
  -2  10  -2   19.28    0.63
   2 -10   2   17.70    0.56
   2 -10   2   19.09    0.47
   2 -10   2   18.93    0.58
   2 -10   2   18.71    0.58
   2 -10   2   19.13    0.51
  -3  10  -2    1.44    0.16
  -3  10  -2    1.19    0.16
   3 -10   2    1.34    0.17
   3 -10   2    1.38    0.17
   3 -10   2    1.12    0.12
  -4  10  -2    0.97    0.18
  -4  10  -2    1.15    0.17
   4 -10   2    0.92    0.13
   4 -10   2    1.11    0.18
   4   9  -2    0.36    0.16
   4   9  -2    0.32    0.16
   4   9  -2    0.56    0.18
  -4  -9   2    0.33    0.16
   3   9  -2    3.94    0.25
   3   9  -2    4.52    0.27
  -3  -9   2    3.68    0.24
  -3  -9   2    3.84    0.24
   2   9  -2    1.93    0.18
   2   9  -2    1.94    0.20
   2   9  -2    1.65    0.16
   2   9  -2    2.36    0.24
  -2  -9   2    1.72    0.17
  -2  -9   2    1.81    0.18
  -2  -9   2    2.19    0.16
   1   9  -2    0.08    0.09
   1   9  -2   -0.03    0.12
   1   9  -2    0.09    0.08
   1   9  -2   -0.02    0.06
   1   9  -2    0.13    0.07
   1   9  -2    0.04    0.11
   1   9  -2   -0.02    0.14
   1   9  -2    0.19    0.10
   1   9  -2    0.13    0.13
  -1  -9   2   -0.02    0.09
  -1  -9   2    0.06    0.08
  -1  -9   2    0.13    0.06
  -1  -9   2    0.06    0.08
  -1  -9   2    0.02    0.11
  -1  -9   2   -0.01    0.10
   0   9  -2    7.37    0.35
   0   9  -2    7.93    0.28
   0   9  -2    7.66    0.23
   0   9  -2    7.57    0.29
   0   9  -2    8.07    0.31
   0   9  -2    7.82    0.26
   0   9  -2    7.84    0.37
   0   9  -2    7.53    0.23
   0   9  -2    8.12    0.32
   0   9  -2    8.16    0.32
   0  -9   2    7.54    0.25
   0  -9   2    7.52    0.22
   0  -9   2    7.57    0.25
   0  -9   2    7.70    0.30
   0  -9   2    7.74    0.29
   0  -9   2    7.55    0.29
  -1   9  -2   26.91    0.63
  -1   9  -2   25.63    0.74
  -1   9  -2   26.33    0.79
  -1   9  -2   26.45    0.67
  -1   9  -2   24.66    0.91
  -1   9  -2   27.89    0.88
  -1   9  -2   26.25    0.79
  -1   9  -2   27.50    0.64
  -1   9  -2   26.09    0.77
  -1   9  -2   26.63    0.71
   1  -9   2   26.21    0.67
   1  -9   2   25.73    0.74
   1  -9   2   24.99    0.74
   1  -9   2   26.14    0.60
   1  -9   2   26.50    0.65
   1  -9   2   26.49    0.76
  -2   9  -2    9.33    0.35
  -2   9  -2    9.03    0.39
  -2   9  -2    9.11    0.25
  -2   9  -2    9.20    0.25
  -2   9  -2    9.78    0.37
  -2   9  -2    8.47    0.32
  -2   9  -2    9.37    0.32
  -2   9  -2    9.43    0.28
   2  -9   2    9.44    0.29
   2  -9   2    8.95    0.33
   2  -9   2    8.86    0.26
   2  -9   2    9.45    0.34
   2  -9   2    9.25    0.32
   2  -9   2    8.81    0.33
  -3   9  -2    5.48    0.25
  -3   9  -2    5.22    0.29
  -3   9  -2    5.71    0.26
   3  -9   2    5.54    0.21
   3  -9   2    5.49    0.25
   3  -9   2    5.57    0.26
   3  -9   2    5.33    0.27
   3  -9   2    5.47    0.23
  -4   9  -2    3.80    0.25
  -4   9  -2    3.21    0.24
   4  -9   2    3.50    0.19
   4  -9   2    3.59    0.25
   4  -9   2    3.22    0.23
   4   8  -2    1.05    0.18
   4   8  -2    1.15    0.18
   4   8  -2    0.79    0.16
  -4  -8   2    1.06    0.17
  -4  -8   2    1.21    0.18
   3   8  -2    0.71    0.13
   3   8  -2    0.59    0.14
   3   8  -2    0.56    0.14
   3   8  -2    0.64    0.14
  -3  -8   2    0.60    0.13
  -3  -8   2    0.60    0.13
   2   8  -2    0.33    0.12
   2   8  -2    0.33    0.11
   2   8  -2    0.19    0.13
   2   8  -2    0.22    0.07
   2   8  -2    0.20    0.10
   2   8  -2    0.26    0.12
   2   8  -2    0.11    0.10
   2   8  -2    0.35    0.08
  -2  -8   2    0.17    0.08
  -2  -8   2    0.23    0.09
  -2  -8   2    0.17    0.10
  -2  -8   2    0.41    0.11
   1   8  -2   16.09    0.46
   1   8  -2   13.66    0.52
   1   8  -2   15.15    0.43
   1   8  -2   15.20    0.48
   1   8  -2   15.46    0.39
   1   8  -2   15.54    0.39
   1   8  -2   14.97    0.55
   1   8  -2   13.72    0.51
   1   8  -2   14.74    0.56
   1   8  -2   14.94    0.49
  -1  -8   2   13.81    0.48
  -1  -8   2   15.91    0.41
  -1  -8   2   15.12    0.41
  -1  -8   2   15.43    0.44
  -1  -8   2   15.71    0.49
  -1  -8   2   15.30    0.49
   0   8  -2   14.74    0.48
   0   8  -2   13.69    0.36
   0   8  -2   14.54    0.37
   0   8  -2   14.65    0.43
   0   8  -2   14.27    0.44
   0   8  -2   14.16    0.51
   0   8  -2   13.89    0.40
   0   8  -2   14.76    0.54
   0   8  -2   15.99    0.47
   0   8  -2   14.88    0.47
   0  -8   2   14.39    0.44
   0  -8   2   13.99    0.44
   0  -8   2   14.47    0.34
   0  -8   2   14.68    0.47
   0  -8   2   14.70    0.46
   0  -8   2   13.57    0.38
   0  -8   2   14.27    0.39
  -1   8  -2    0.48    0.10
  -1   8  -2    0.19    0.15
  -1   8  -2    0.44    0.10
  -1   8  -2    0.45    0.07
  -1   8  -2    0.62    0.11
  -1   8  -2    0.66    0.12
  -1   8  -2    0.53    0.07
  -1   8  -2    0.46    0.09
  -1   8  -2    0.50    0.06
  -1   8  -2    0.42    0.10
   1  -8   2    0.45    0.09
   1  -8   2    0.51    0.10
   1  -8   2    0.52    0.08
   1  -8   2    0.44    0.09
   1  -8   2    0.44    0.06
   1  -8   2    0.44    0.10
  -2   8  -2   14.59    0.46
  -2   8  -2   15.13    0.49
  -2   8  -2   14.64    0.37
  -2   8  -2   15.17    0.48
  -2   8  -2   15.12    0.39
  -2   8  -2   14.65    0.38
  -2   8  -2   14.35    0.58
  -2   8  -2   15.34    0.54
  -2   8  -2   14.63    0.44
  -2   8  -2   14.68    0.37
   2  -8   2   14.57    0.40
   2  -8   2   14.69    0.44
   2  -8   2   14.22    0.45
   2  -8   2   14.46    0.37
   2  -8   2   14.90    0.42
   2  -8   2   15.39    0.47
   2  -8   2   14.93    0.45
  -3   8  -2    1.38    0.16
  -3   8  -2    1.18    0.17
  -3   8  -2    1.22    0.14
  -3   8  -2    1.18    0.14
   3  -8   2    1.19    0.12
   3  -8   2    1.09    0.14
   3  -8   2    1.04    0.10
   3  -8   2    0.95    0.14
   3  -8   2    1.02    0.13
  -4   8  -2    1.59    0.18
  -4   8  -2    1.44    0.18
   4  -8   2    1.49    0.18
   4  -8   2    1.56    0.13
   4  -8   2    1.48    0.17
   4   7  -2   -0.03    0.13
   4   7  -2    0.05    0.13
  -4  -7   2   -0.01    0.13
  -4  -7   2    0.12    0.12
   3   7  -2    1.80    0.16
   3   7  -2    1.70    0.16
   3   7  -2    1.77    0.17
   3   7  -2    2.23    0.18
  -3  -7   2    2.28    0.17
  -3  -7   2    1.72    0.16
  -3  -7   2    1.70    0.16
   2   7  -2   17.39    0.52
   2   7  -2   17.25    0.55
   2   7  -2   16.93    0.43
   2   7  -2   17.27    0.51
   2   7  -2   17.23    0.62
   2   7  -2   16.50    0.44
   2   7  -2   16.16    0.50
   2   7  -2   17.62    0.56
   2   7  -2   17.73    0.61
  -2  -7   2   18.07    0.54
  -2  -7   2   17.21    0.45
  -2  -7   2   17.02    0.52
  -2  -7   2   17.81    0.51
  -2  -7   2   17.01    0.50
   1   7  -2    9.08    0.30
   1   7  -2    9.67    0.39
   1   7  -2   10.11    0.34
   1   7  -2    9.10    0.35
   1   7  -2    9.85    0.26
   1   7  -2    9.39    0.36
   1   7  -2   10.14    0.26
   1   7  -2   10.00    0.39
   1   7  -2    9.51    0.31
   1   7  -2    9.56    0.34
  -1  -7   2    9.85    0.34
  -1  -7   2    9.60    0.34
  -1  -7   2    9.85    0.28
  -1  -7   2    9.94    0.28
  -1  -7   2    8.89    0.33
  -1  -7   2    9.51    0.34
  -1  -7   2    9.53    0.30
   0   7  -2   39.65    1.22
   0   7  -2   38.84    0.90
   0   7  -2   40.65    1.24
   0   7  -2   39.34    1.01
   0   7  -2   38.37    1.04
   0   7  -2   39.22    0.98
   0   7  -2   39.80    1.10
   0   7  -2   42.44    1.06
   0   7  -2   42.38    1.10
   0   7  -2   40.09    0.91
   0  -7   2   39.63    0.92
   0  -7   2   38.23    0.93
   0  -7   2   39.30    0.85
   0  -7   2   38.00    1.08
   0  -7   2   38.98    1.04
   0  -7   2   40.01    1.03
   0  -7   2   41.59    1.10
  -1   7  -2   11.81    0.33
  -1   7  -2    9.83    0.30
  -1   7  -2    9.89    0.34
  -1   7  -2   11.11    0.32
  -1   7  -2    9.82    0.26
  -1   7  -2    9.62    0.37
  -1   7  -2    9.58    0.27
  -1   7  -2    9.98    0.27
  -1   7  -2    9.92    0.33
  -1   7  -2    8.54    0.42
   1  -7   2    9.95    0.25
   1  -7   2    9.88    0.35
   1  -7   2    9.82    0.28
   1  -7   2    9.55    0.32
   1  -7   2    9.99    0.33
   1  -7   2    9.72    0.32
   1  -7   2    9.31    0.29
  -2   7  -2   12.86    0.46
  -2   7  -2   12.21    0.41
  -2   7  -2   12.22    0.31
  -2   7  -2   12.13    0.38
  -2   7  -2   12.06    0.39
  -2   7  -2   12.74    0.33
  -2   7  -2   12.25    0.49
  -2   7  -2   12.72    0.41
  -2   7  -2   12.25    0.31
  -2   7  -2   12.51    0.32
  -2   7  -2   12.69    0.39
   2  -7   2   12.97    0.39
   2  -7   2   12.42    0.40
   2  -7   2   12.53    0.31
   2  -7   2   11.59    0.39
   2  -7   2   12.61    0.35
   2  -7   2   11.80    0.37
   2  -7   2   12.38    0.34
   2  -7   2   12.38    0.38
  -3   7  -2    1.61    0.11
  -3   7  -2    1.67    0.18
  -3   7  -2    1.92    0.15
  -3   7  -2    1.38    0.14
  -3   7  -2    1.66    0.11
  -3   7  -2    1.66    0.08
  -3   7  -2    1.76    0.16
  -3   7  -2    1.57    0.15
   3  -7   2    1.60    0.11
   3  -7   2    1.51    0.12
   3  -7   2    1.46    0.13
   3  -7   2    1.89    0.15
   3  -7   2    1.59    0.14
   3  -7   2    1.57    0.12
  -4   7  -2    0.35    0.13
  -4   7  -2    0.25    0.13
   4  -7   2    0.29    0.12
   4  -7   2    0.24    0.09
   4  -7   2    0.30    0.13
  -5   7  -2    1.42    0.19
  -5   7  -2    1.15    0.19
   5  -7   2    1.22    0.20
   5  -7   2    1.10    0.13
   4   6  -2    1.07    0.16
   4   6  -2    0.98    0.16
  -4  -6   2    0.97    0.15
  -4  -6   2    1.04    0.16
   3   6  -2    7.42    0.32
   3   6  -2    7.68    0.36
   3   6  -2    7.32    0.30
   3   6  -2    8.13    0.29
   3   6  -2    8.38    0.25
   3   6  -2    8.25    0.32
   3   6  -2    7.83    0.25
  -3  -6   2    7.87    0.26
  -3  -6   2    7.81    0.30
  -3  -6   2    7.83    0.30
  -3  -6   2    7.76    0.30
   2   6  -2    3.00    0.13
   2   6  -2    3.11    0.18
   2   6  -2    3.03    0.17
   2   6  -2    2.83    0.18
   2   6  -2    3.34    0.22
   2   6  -2    2.85    0.17
   2   6  -2    2.87    0.17
   2   6  -2    2.97    0.20
   2   6  -2    2.64    0.16
   2   6  -2    2.95    0.13
   2   6  -2    2.64    0.16
  -2  -6   2    2.88    0.16
  -2  -6   2    2.89    0.16
  -2  -6   2    2.76    0.17
  -2  -6   2    3.06    0.16
  -2  -6   2    3.22    0.14
  -2  -6   2    3.23    0.18
   1   6  -2    0.28    0.07
   1   6  -2    0.36    0.05
   1   6  -2    0.19    0.07
   1   6  -2    0.34    0.05
   1   6  -2    0.24    0.07
   1   6  -2    0.28    0.08
   1   6  -2    0.32    0.08
   1   6  -2    0.22    0.09
   1   6  -2    0.30    0.10
   1   6  -2    0.25    0.06
  -1  -6   2    0.28    0.07
  -1  -6   2    0.18    0.06
  -1  -6   2    0.34    0.06
  -1  -6   2    0.29    0.06
  -1  -6   2    0.29    0.08
  -1  -6   2    0.36    0.08
  -1  -6   2    0.31    0.07
   0   6  -2   37.07    0.86
   0   6  -2   37.71    1.04
   0   6  -2   36.77    0.93
   0   6  -2   38.14    0.96
   0   6  -2   37.30    0.86
   0   6  -2   38.61    1.04
   0   6  -2   35.16    1.15
   0   6  -2   37.49    0.98
   0   6  -2   41.48    1.00
   0   6  -2   38.22    1.17
   0  -6   2   37.23    0.87
   0  -6   2   38.23    1.02
   0  -6   2   38.51    0.98
   0  -6   2   39.17    1.04
   0  -6   2   37.05    0.98
   0  -6   2   37.63    0.88
  -1   6  -2   29.33    0.80
  -1   6  -2   28.47    0.67
  -1   6  -2   30.80    0.77
  -1   6  -2   28.73    0.93
  -1   6  -2   29.84    0.90
  -1   6  -2   28.62    0.71
  -1   6  -2   29.07    0.67
  -1   6  -2   29.02    0.81
  -1   6  -2   28.78    0.74
  -1   6  -2   28.39    0.76
   1  -6   2   28.88    0.63
   1  -6   2   28.47    0.75
   1  -6   2   29.47    0.68
   1  -6   2   29.40    0.81
   1  -6   2   29.47    0.79
   1  -6   2   28.78    0.70
   1  -6   2   28.74    0.76
  -2   6  -2    8.63    0.28
  -2   6  -2    8.10    0.29
  -2   6  -2    7.64    0.34
  -2   6  -2    8.02    0.29
  -2   6  -2    8.63    0.23
  -2   6  -2    7.87    0.27
  -2   6  -2    8.55    0.27
  -2   6  -2    8.17    0.21
  -2   6  -2    8.61    0.34
  -2   6  -2    8.22    0.24
   2  -6   2    8.31    0.24
   2  -6   2    7.86    0.26
   2  -6   2    8.33    0.25
   2  -6   2    7.94    0.28
   2  -6   2    7.94    0.29
   2  -6   2    8.31    0.29
   2  -6   2    8.06    0.22
   2  -6   2    8.08    0.27
  -3   6  -2    7.36    0.33
  -3   6  -2    7.32    0.28
  -3   6  -2    7.38    0.34
  -3   6  -2    6.98    0.28
  -3   6  -2    7.38    0.30
  -3   6  -2    7.50    0.24
  -3   6  -2    7.18    0.30
  -3   6  -2    7.43    0.21
  -3   6  -2    7.58    0.23
   3  -6   2    7.64    0.25
   3  -6   2    6.82    0.28
   3  -6   2    7.49    0.30
   3  -6   2    7.34    0.28
   3  -6   2    7.37    0.25
   3  -6   2    7.08    0.26
   3  -6   2    7.35    0.22
  -4   6  -2    2.37    0.19
  -4   6  -2    2.40    0.19
   4  -6   2    2.87    0.21
   4  -6   2    2.73    0.20
   4  -6   2    2.69    0.19
   4  -6   2    2.52    0.15
  -5   6  -2    0.47    0.16
  -5   6  -2    0.57    0.16
   5  -6   2    0.60    0.16
   5  -6   2    0.61    0.11
   5  -6   2    0.51    0.16
   5   5  -2    0.52    0.16
   5   5  -2    0.62    0.17
  -5  -5   2    0.64    0.16
  -5  -5   2    0.57    0.16
   4   5  -2    1.71    0.17
   4   5  -2    1.76    0.17
  -4  -5   2    1.42    0.16
  -4  -5   2    1.47    0.16
   3   5  -2    0.47    0.11
   3   5  -2    0.75    0.09
   3   5  -2    0.76    0.14
   3   5  -2    0.65    0.11
   3   5  -2    0.63    0.11
   3   5  -2    0.67    0.08
   3   5  -2    0.67    0.11
   3   5  -2    0.56    0.12
  -3  -5   2    0.58    0.09
  -3  -5   2    0.63    0.11
  -3  -5   2    0.50    0.10
  -3  -5   2    0.73    0.11
  -3  -5   2    0.68    0.11
  -3  -5   2    0.69    0.11
   2   5  -2    3.88    0.19
   2   5  -2    3.78    0.20
   2   5  -2    3.78    0.18
   2   5  -2    3.75    0.17
   2   5  -2    3.62    0.18
   2   5  -2    3.53    0.17
   2   5  -2    3.45    0.17
   2   5  -2    3.98    0.21
   2   5  -2    3.69    0.14
   2   5  -2    3.46    0.13
  -2  -5   2    3.82    0.14
  -2  -5   2    3.51    0.16
  -2  -5   2    3.80    0.17
  -2  -5   2    3.48    0.17
  -2  -5   2    3.45    0.16
  -2  -5   2    3.86    0.19
   1   5  -2   29.00    0.78
   1   5  -2   28.61    0.87
   1   5  -2   27.25    0.88
   1   5  -2   28.17    0.65
   1   5  -2   28.09    0.74
   1   5  -2   28.16    0.65
   1   5  -2   27.92    0.73
   1   5  -2   28.28    0.72
   1   5  -2   27.51    0.77
   1   5  -2   30.01    0.75
  -1  -5   2   27.66    0.66
  -1  -5   2   27.09    0.74
  -1  -5   2   27.90    0.72
  -1  -5   2   28.10    0.78
  -1  -5   2   28.45    0.66
  -1  -5   2   28.23    0.72
  -1  -5   2   28.96    0.77
  -1  -5   2   28.97    0.77
   0   5  -2    3.57    0.17
   0   5  -2    4.01    0.18
   0   5  -2    3.68    0.13
   0   5  -2    3.74    0.16
   0   5  -2    3.51    0.11
   0   5  -2    3.77    0.17
   0   5  -2    3.65    0.11
   0   5  -2    3.84    0.20
   0   5  -2    3.69    0.14
   0   5  -2    3.98    0.18
   0  -5   2    4.00    0.17
   0  -5   2    3.81    0.15
   0  -5   2    3.75    0.13
   0  -5   2    3.47    0.15
   0  -5   2    3.80    0.12
   0  -5   2    3.58    0.16
   0  -5   2    3.65    0.15
   0  -5   2    3.90    0.17
   0  -5   2    3.51    0.13
   0  -5   2    3.75    0.17
  -1   5  -2    1.78    0.10
  -1   5  -2    1.81    0.06
  -1   5  -2    1.61    0.10
  -1   5  -2    1.63    0.13
  -1   5  -2    1.88    0.11
  -1   5  -2    1.73    0.11
  -1   5  -2    1.52    0.10
  -1   5  -2    1.77    0.09
  -1   5  -2    1.78    0.08
  -1   5  -2    2.03    0.13
   1  -5   2    1.79    0.10
   1  -5   2    1.82    0.12
   1  -5   2    1.82    0.11
   1  -5   2    1.66    0.09
   1  -5   2    1.74    0.10
   1  -5   2    1.76    0.13
   1  -5   2    1.85    0.08
   1  -5   2    1.88    0.10
  -2   5  -2   28.33    0.74
  -2   5  -2   28.20    0.77
  -2   5  -2   28.06    0.65
  -2   5  -2   27.27    0.65
  -2   5  -2   26.86    0.72
  -2   5  -2   28.54    0.78
  -2   5  -2   28.16    0.87
  -2   5  -2   27.82    0.67
  -2   5  -2   27.53    0.88
  -2   5  -2   28.10    0.74
   2  -5   2   27.76    0.70
   2  -5   2   28.02    0.77
   2  -5   2   27.63    0.74
   2  -5   2   28.20    0.61
   2  -5   2   27.38    0.77
   2  -5   2   27.86    0.66
   2  -5   2   27.80    0.66
   2  -5   2   27.72    0.73
  -3   5  -2   21.62    0.64
  -3   5  -2   21.60    0.60
  -3   5  -2   21.91    0.72
  -3   5  -2   21.10    0.53
  -3   5  -2   20.68    0.73
  -3   5  -2   21.77    0.54
  -3   5  -2   21.18    0.61
  -3   5  -2   21.00    0.53
  -3   5  -2   21.91    0.64
   3  -5   2   21.21    0.49
   3  -5   2   21.13    0.54
   3  -5   2   21.43    0.60
   3  -5   2   21.83    0.63
   3  -5   2   21.61    0.55
   3  -5   2   19.67    0.56
   3  -5   2   21.34    0.64
   3  -5   2   21.90    0.61
  -4   5  -2    1.65    0.17
  -4   5  -2    1.53    0.16
  -4   5  -2    1.63    0.16
   4  -5   2    1.75    0.12
   4  -5   2    1.82    0.16
   4  -5   2    2.07    0.17
   4  -5   2    1.45    0.16
  -5   5  -2    0.87    0.16
  -5   5  -2    0.43    0.15
   5  -5   2    0.89    0.17
   5  -5   2    0.60    0.11
   5  -5   2    0.63    0.17
   5   4  -2    0.29    0.16
   5   4  -2    0.43    0.16
  -5  -4   2    0.37    0.15
  -5  -4   2    0.52    0.16
   4   4  -2    0.22    0.12
   4   4  -2   -0.11    0.10
   4   4  -2   -0.18    0.11
   4   4  -2   -0.13    0.11
  -4  -4   2    0.02    0.11
  -4  -4   2   -0.07    0.10
  -4  -4   2   -0.02    0.10
   3   4  -2    1.78    0.17
   3   4  -2    1.59    0.13
   3   4  -2    1.28    0.12
   3   4  -2    1.88    0.15
   3   4  -2    1.59    0.14
   3   4  -2    1.45    0.13
   3   4  -2    1.93    0.12
   3   4  -2    1.58    0.13
   3   4  -2    1.57    0.15
  -3  -4   2    1.96    0.15
  -3  -4   2    1.66    0.14
  -3  -4   2    1.46    0.13
  -3  -4   2    1.56    0.14
  -3  -4   2    1.28    0.12
  -3  -4   2    1.53    0.11
   2   4  -2  196.36    4.68
   2   4  -2  182.27    4.88
   2   4  -2  191.32    5.53
   2   4  -2  191.20    4.68
   2   4  -2  194.84    4.20
   2   4  -2  194.65    5.54
   2   4  -2  193.55    4.20
   2   4  -2  188.98    4.59
   2   4  -2  188.51    4.56
   2   4  -2  200.15    4.89
  -2  -4   2  184.23    4.68
  -2  -4   2  192.09    4.59
  -2  -4   2  195.04    4.88
  -2  -4   2  167.95    5.52
  -2  -4   2  194.39    5.52
  -2  -4   2  189.54    4.88
  -2  -4   2  190.44    4.56
  -2  -4   2  194.81    4.21
   1   4  -2    3.46    0.14
   1   4  -2    3.67    0.13
   1   4  -2    3.60    0.14
   1   4  -2    3.50    0.17
   1   4  -2    3.53    0.15
   1   4  -2    3.51    0.11
   1   4  -2    3.59    0.16
   1   4  -2    3.29    0.13
   1   4  -2    3.53    0.14
   1   4  -2    3.52    0.11
   1   4  -2    3.47    0.14
  -1  -4   2    3.53    0.11
  -1  -4   2    3.33    0.13
  -1  -4   2    3.39    0.14
  -1  -4   2    3.77    0.14
  -1  -4   2    3.39    0.14
  -1  -4   2    3.41    0.12
  -1  -4   2    3.51    0.13
  -1  -4   2    3.35    0.14
  -1  -4   2    3.37    0.13
  -1  -4   2    3.65    0.10
  -1  -4   2    3.23    0.13
   0   4  -2   66.77    2.00
   0   4  -2   69.24    1.99
   0   4  -2   66.61    1.69
   0   4  -2   71.95    1.71
   0   4  -2   68.20    1.65
   0   4  -2   69.65    1.50
   0   4  -2   65.70    1.77
   0   4  -2   68.07    1.77
   0   4  -2   66.91    1.63
   0   4  -2   68.21    1.50
   0  -4   2   63.44    1.98
   0  -4   2   70.71    1.63
   0  -4   2   71.24    1.70
   0  -4   2   68.21    1.76
   0  -4   2   68.42    1.65
   0  -4   2   65.79    1.69
   0  -4   2   67.79    1.67
   0  -4   2   68.43    1.51
   0  -4   2   68.64    1.51
   0  -4   2   66.55    1.77
  -1   4  -2   71.82    2.11
  -1   4  -2   73.19    1.60
  -1   4  -2   72.44    1.60
  -1   4  -2   69.31    2.12
  -1   4  -2   72.60    1.75
  -1   4  -2   71.31    1.87
  -1   4  -2   71.56    1.79
  -1   4  -2   75.57    1.79
  -1   4  -2   73.73    1.87
   1  -4   2   70.44    1.79
   1  -4   2   72.53    1.61
   1  -4   2   72.91    1.86
   1  -4   2   72.10    1.61
   1  -4   2   72.83    1.79
   1  -4   2   71.54    1.50
   1  -4   2   71.89    1.87
   1  -4   2   74.51    1.75
   1  -4   2   69.31    1.75
   1  -4   2   71.71    2.11
   1  -4   2   72.51    1.67
  -2   4  -2   24.24    0.65
  -2   4  -2   24.64    0.58
  -2   4  -2   25.31    0.66
  -2   4  -2   25.01    0.69
  -2   4  -2   25.02    0.64
  -2   4  -2   24.82    0.60
  -2   4  -2   24.41    0.51
  -2   4  -2   24.42    0.58
  -2   4  -2   24.89    0.78
  -2   4  -2   24.28    0.78
  -2   4  -2   24.94    0.69
   2  -4   2   24.54    0.77
   2  -4   2   23.73    0.64
   2  -4   2   24.71    0.62
   2  -4   2   23.69    0.54
   2  -4   2   24.57    0.68
   2  -4   2   24.09    0.58
   2  -4   2   24.43    0.65
   2  -4   2   24.33    0.59
   2  -4   2   24.73    0.68
  -3   4  -2    1.00    0.11
  -3   4  -2    1.04    0.09
  -3   4  -2    1.26    0.16
  -3   4  -2    1.02    0.12
  -3   4  -2    0.92    0.11
  -3   4  -2    1.08    0.13
  -3   4  -2    1.20    0.09
  -3   4  -2    1.35    0.13
  -3   4  -2    1.25    0.09
   3  -4   2    1.04    0.11
   3  -4   2    1.14    0.12
   3  -4   2    1.10    0.11
   3  -4   2    1.12    0.12
   3  -4   2    1.12    0.11
   3  -4   2    1.08    0.10
   3  -4   2    1.07    0.08
   3  -4   2    1.21    0.09
  -4   4  -2    3.58    0.23
  -4   4  -2    3.31    0.20
  -4   4  -2    3.40    0.21
  -4   4  -2    3.36    0.16
   4  -4   2    3.37    0.16
   4  -4   2    3.27    0.22
   4  -4   2    3.57    0.16
   4  -4   2    3.24    0.21
   4  -4   2    3.37    0.20
  -5   4  -2    1.24    0.18
  -5   4  -2    1.10    0.17
   5  -4   2    1.43    0.18
   5  -4   2    1.17    0.17
   5  -4   2    1.05    0.12
   5   3  -2    0.32    0.15
   5   3  -2    0.20    0.15
  -5  -3   2   -0.11    0.13
  -5  -3   2    0.04    0.14
   4   3  -2    4.47    0.27
   4   3  -2    3.99    0.24
   4   3  -2    4.39    0.14
   4   3  -2    4.57    0.24
   4   3  -2    4.24    0.24
  -4  -3   2    4.21    0.23
  -4  -3   2    4.80    0.25
  -4  -3   2    4.69    0.24
   3   3  -2   13.09    0.42
   3   3  -2   12.87    0.48
   3   3  -2   13.23    0.35
   3   3  -2   13.05    0.39
   3   3  -2   13.08    0.41
   3   3  -2   13.11    0.43
   3   3  -2   13.17    0.30
   3   3  -2   13.02    0.40
  -3  -3   2   13.06    0.40
  -3  -3   2   13.17    0.38
  -3  -3   2   13.23    0.42
  -3  -3   2   13.25    0.40
  -3  -3   2   13.02    0.43
  -3  -3   2   12.71    0.39
  -3  -3   2   13.91    0.36
  -3  -3   2   12.91    0.47
   2   3  -2   16.08    0.44
   2   3  -2   16.27    0.44
   2   3  -2   15.85    0.47
   2   3  -2   15.99    0.44
   2   3  -2   16.51    0.44
   2   3  -2   16.28    0.53
   2   3  -2   15.73    0.47
   2   3  -2   15.98    0.39
   2   3  -2   15.84    0.47
  -2  -3   2   15.45    0.43
  -2  -3   2   15.80    0.46
  -2  -3   2   15.92    0.52
  -2  -3   2   15.39    0.43
  -2  -3   2   16.36    0.46
  -2  -3   2   16.05    0.39
  -2  -3   2   15.23    0.44
   1   3  -2   52.72    1.16
   1   3  -2   53.19    1.31
   1   3  -2   52.09    1.55
   1   3  -2   53.25    1.17
   1   3  -2   52.91    1.37
   1   3  -2   52.84    1.31
   1   3  -2   52.27    1.28
   1   3  -2   52.19    1.37
   1   3  -2   51.18    1.28
   1   3  -2   52.78    1.54
  -1  -3   2   53.02    1.28
  -1  -3   2   53.44    1.36
  -1  -3   2   52.74    1.28
  -1  -3   2   53.24    1.28
  -1  -3   2   52.91    1.09
  -1  -3   2   52.87    1.54
  -1  -3   2   52.97    1.31
  -1  -3   2   53.78    1.17
  -1  -3   2   50.13    1.36
  -1  -3   2   50.49    1.30
   0   3  -2   66.91    1.58
   0   3  -2   64.81    1.60
   0   3  -2   65.20    1.59
   0   3  -2   66.74    1.65
   0   3  -2   66.92    1.45
   0   3  -2   59.91    1.71
   0   3  -2   66.10    1.93
   0   3  -2   65.62    1.59
   0   3  -2   67.86    1.70
   0   3  -2   67.72    1.45
   0   3  -2   67.11    1.63
   0   3  -2   67.53    1.92
   0  -3   2   67.20    1.64
   0  -3   2   65.68    1.63
   0  -3   2   66.77    1.70
   0  -3   2   67.86    1.46
   0  -3   2   61.78    1.61
   0  -3   2   62.28    1.71
   0  -3   2   68.01    1.58
   0  -3   2   65.46    1.46
   0  -3   2   66.20    1.91
   0  -3   2   68.73    1.60
   0  -3   2   67.77    1.91
  -1   3  -2   17.75    0.49
  -1   3  -2   18.18    0.50
  -1   3  -2   18.36    0.56
  -1   3  -2   18.46    0.47
  -1   3  -2   18.20    0.42
  -1   3  -2   18.00    0.46
  -1   3  -2   17.55    0.47
  -1   3  -2   17.56    0.56
  -1   3  -2   18.10    0.41
   1  -3   2   18.41    0.49
   1  -3   2   17.95    0.46
   1  -3   2   17.81    0.39
   1  -3   2   18.32    0.47
   1  -3   2   18.14    0.42
   1  -3   2   18.16    0.49
   1  -3   2   18.18    0.45
   1  -3   2   18.61    0.47
   1  -3   2   17.48    0.42
   1  -3   2   18.05    0.46
  -2   3  -2    0.21    0.05
  -2   3  -2    0.18    0.06
  -2   3  -2    0.23    0.06
  -2   3  -2    0.15    0.06
  -2   3  -2    0.26    0.09
  -2   3  -2    0.22    0.06
  -2   3  -2    0.16    0.04
  -2   3  -2    0.15    0.06
  -2   3  -2    0.17    0.05
  -2   3  -2    0.15    0.06
  -2   3  -2    0.22    0.07
  -2   3  -2    0.13    0.02
   2  -3   2    0.15    0.06
   2  -3   2    0.17    0.04
   2  -3   2    0.23    0.06
   2  -3   2    0.22    0.06
   2  -3   2    0.22    0.04
   2  -3   2    0.13    0.06
   2  -3   2    0.14    0.08
   2  -3   2    0.12    0.05
   2  -3   2    0.10    0.05
   2  -3   2    0.19    0.06
  -3   3  -2   17.51    0.47
  -3   3  -2   17.83    0.48
  -3   3  -2   17.30    0.54
  -3   3  -2   17.49    0.45
  -3   3  -2   18.01    0.61
  -3   3  -2   17.96    0.54
  -3   3  -2   17.42    0.60
  -3   3  -2   17.60    0.51
  -3   3  -2   17.90    0.50
  -3   3  -2   17.56    0.44
   3  -3   2   18.23    0.54
   3  -3   2   17.98    0.42
   3  -3   2   17.29    0.60
   3  -3   2   17.95    0.46
   3  -3   2   17.26    0.51
   3  -3   2   18.25    0.51
   3  -3   2   18.12    0.54
   3  -3   2   17.98    0.48
   3  -3   2   16.62    0.45
  -4   3  -2    4.19    0.18
  -4   3  -2    4.65    0.25
  -4   3  -2    4.45    0.23
  -4   3  -2    4.29    0.23
   4  -3   2    4.11    0.23
   4  -3   2    4.30    0.21
   4  -3   2    4.35    0.17
   4  -3   2    4.25    0.20
   4  -3   2    4.35    0.24
   4  -3   2    4.74    0.19
  -5   3  -2    0.00    0.14
  -5   3  -2    0.12    0.13
   5  -3   2   -0.18    0.13
   5  -3   2    0.14    0.13
   5  -3   2   -0.04    0.09
   5   2  -2    1.34    0.18
   5   2  -2    1.63    0.19
  -5  -2   2    1.68    0.18
  -5  -2   2    1.84    0.19
   4   2  -2    2.63    0.11
   4   2  -2    2.56    0.20
   4   2  -2    2.30    0.19
   4   2  -2    2.45    0.18
  -4  -2   2    2.56    0.19
  -4  -2   2    2.63    0.16
  -4  -2   2    2.81    0.18
  -4  -2   2    2.53    0.17
   3   2  -2    2.66    0.17
   3   2  -2    2.58    0.20
   3   2  -2    2.36    0.16
   3   2  -2    2.39    0.15
   3   2  -2    2.67    0.09
   3   2  -2    2.34    0.12
   3   2  -2    2.44    0.14
   3   2  -2    2.66    0.16
  -3  -2   2    2.46    0.13
  -3  -2   2    2.32    0.17
  -3  -2   2    2.45    0.15
  -3  -2   2    2.80    0.17
  -3  -2   2    2.44    0.15
  -3  -2   2    2.39    0.14
  -3  -2   2    2.65    0.15
  -3  -2   2    2.59    0.16
   2   2  -2   89.46    2.20
   2   2  -2   89.59    2.19
   2   2  -2   91.24    2.35
   2   2  -2   90.61    2.01
   2   2  -2   91.32    2.35
   2   2  -2   91.40    2.25
   2   2  -2   90.71    1.88
   2   2  -2   92.23    2.25
   2   2  -2   91.93    2.66
  -2  -2   2   91.34    2.65
  -2  -2   2   91.96    2.35
  -2  -2   2   90.42    2.02
  -2  -2   2   91.40    2.25
  -2  -2   2   89.03    2.19
  -2  -2   2   87.72    2.20
  -2  -2   2   91.40    2.34
   1   2  -2   38.84    0.93
   1   2  -2   37.28    0.99
   1   2  -2   38.59    0.99
   1   2  -2   38.47    0.84
   1   2  -2   38.50    0.95
   1   2  -2   38.19    0.85
   1   2  -2   37.35    0.93
   1   2  -2   37.67    0.93
   1   2  -2   38.22    0.95
   1   2  -2   37.25    1.12
  -1  -2   2   38.22    1.11
  -1  -2   2   37.93    0.99
  -1  -2   2   37.93    0.99
  -1  -2   2   38.14    0.79
  -1  -2   2   38.14    0.95
  -1  -2   2   39.75    0.93
  -1  -2   2   37.09    0.93
  -1  -2   2   37.41    1.12
  -1  -2   2   38.73    0.85
  -1  -2   2   36.35    0.93
  -1  -2   2   38.38    0.95
   0   2  -2   15.48    0.45
   0   2  -2   15.32    0.40
   0   2  -2   15.58    0.37
   0   2  -2   14.56    0.41
   0   2  -2   14.94    0.38
   0   2  -2   15.11    0.45
   0   2  -2   13.99    0.37
   0   2  -2   15.78    0.38
   0  -2   2   15.61    0.40
   0  -2   2   16.08    0.37
   0  -2   2   15.81    0.39
   0  -2   2   15.01    0.40
   0  -2   2   12.81    0.38
   0  -2   2   15.80    0.38
   0  -2   2   15.32    0.37
  -1   2  -2    2.77    0.11
  -1   2  -2    3.05    0.11
  -1   2  -2    3.06    0.09
  -1   2  -2    3.02    0.11
  -1   2  -2    2.92    0.12
  -1   2  -2    2.80    0.10
  -1   2  -2    3.01    0.09
  -1   2  -2    2.83    0.14
  -1   2  -2    3.00    0.13
  -1   2  -2    3.03    0.12
   1  -2   2    3.15    0.11
   1  -2   2    2.91    0.11
   1  -2   2    2.88    0.11
   1  -2   2    3.02    0.11
   1  -2   2    2.87    0.11
   1  -2   2    3.11    0.08
   1  -2   2    3.04    0.11
   1  -2   2    3.06    0.13
   1  -2   2    2.81    0.09
   1  -2   2    2.85    0.11
   1  -2   2    2.99    0.09
   1  -2   2    3.02    0.08
  -2   2  -2   32.11    0.79
  -2   2  -2   33.22    0.89
  -2   2  -2   34.89    0.86
  -2   2  -2   33.52    0.81
  -2   2  -2   33.25    0.69
  -2   2  -2   33.59    0.84
  -2   2  -2   32.09    0.85
  -2   2  -2   32.74    1.01
  -2   2  -2   32.63    0.89
  -2   2  -2   32.23    1.01
  -2   2  -2   33.11    0.76
  -2   2  -2   33.03    0.76
   2  -2   2   32.58    0.89
   2  -2   2   32.34    0.84
   2  -2   2   32.84    1.00
   2  -2   2   33.13    0.85
   2  -2   2   32.73    0.76
   2  -2   2   32.59    0.89
   2  -2   2   33.60    0.71
   2  -2   2   34.16    0.81
   2  -2   2   33.34    0.80
  -3   2  -2   17.38    0.44
  -3   2  -2   17.55    0.53
  -3   2  -2   16.96    0.51
  -3   2  -2   17.65    0.48
  -3   2  -2   17.73    0.54
  -3   2  -2   18.32    0.61
  -3   2  -2   17.84    0.47
  -3   2  -2   18.05    0.44
  -3   2  -2   17.55    0.61
  -3   2  -2   17.36    0.50
   3  -2   2   17.56    0.53
   3  -2   2   17.69    0.51
   3  -2   2   17.40    0.53
   3  -2   2   18.16    0.61
   3  -2   2   17.31    0.41
   3  -2   2   17.30    0.50
   3  -2   2   18.07    0.47
   3  -2   2   17.68    0.45
   3  -2   2   17.21    0.47
  -4   2  -2    4.85    0.23
  -4   2  -2    4.88    0.20
  -4   2  -2    5.06    0.20
  -4   2  -2    4.36    0.23
  -4   2  -2    4.91    0.25
   4  -2   2    4.56    0.20
   4  -2   2    4.61    0.23
   4  -2   2    4.69    0.18
   4  -2   2    5.07    0.25
   4  -2   2    4.78    0.20
  -5   2  -2    2.24    0.21
  -5   2  -2    2.02    0.20
   5  -2   2    2.29    0.15
   5  -2   2    2.23    0.20
   5  -2   2    2.54    0.22
   5   1  -2    0.13    0.13
   5   1  -2   -0.12    0.13
  -5  -1   2    0.08    0.13
  -5  -1   2    0.12    0.13
   4   1  -2    0.38    0.11
   4   1  -2    0.36    0.11
   4   1  -2    0.31    0.06
   4   1  -2    0.30    0.11
  -4  -1   2    0.31    0.10
  -4  -1   2    0.32    0.10
  -4  -1   2    0.31    0.11
  -4  -1   2    0.26    0.09
   3   1  -2   35.64    0.76
   3   1  -2   35.80    0.92
   3   1  -2   36.16    0.93
   3   1  -2   35.18    1.11
   3   1  -2   34.60    0.98
   3   1  -2   34.44    0.97
   3   1  -2   35.64    0.83
   3   1  -2   35.15    0.91
   3   1  -2   35.89    0.93
  -3  -1   2   35.37    0.93
  -3  -1   2   35.86    0.92
  -3  -1   2   35.35    1.09
  -3  -1   2   35.21    0.97
  -3  -1   2   36.52    0.98
  -3  -1   2   35.77    0.84
  -3  -1   2   34.88    0.91
  -3  -1   2   35.36    0.87
   2   1  -2   66.11    1.59
   2   1  -2   64.46    1.58
   2   1  -2   67.23    1.88
   2   1  -2   62.74    1.87
   2   1  -2   62.83    1.55
   2   1  -2   61.53    1.54
   2   1  -2   62.98    1.32
   2   1  -2   61.97    1.65
   2   1  -2   62.51    1.65
   2   1  -2   62.78    1.42
  -2  -1   2   62.56    1.55
  -2  -1   2   63.12    1.87
  -2  -1   2   64.00    1.59
  -2  -1   2   63.32    1.42
  -2  -1   2   63.49    1.47
  -2  -1   2   63.31    1.65
  -2  -1   2   62.65    1.54
  -2  -1   2   62.80    1.65
  -2  -1   2   65.26    1.58
   1   1  -2    7.29    0.17
   1   1  -2    7.32    0.20
   1   1  -2    7.41    0.20
   1   1  -2    7.06    0.20
   1   1  -2    7.04    0.20
   1   1  -2    7.30    0.21
   1   1  -2    7.13    0.23
   1   1  -2    7.26    0.24
   1   1  -2    6.91    0.20
   1   1  -2    7.31    0.21
  -1  -1   2    7.34    0.20
  -1  -1   2    7.12    0.15
  -1  -1   2    7.10    0.23
  -1  -1   2    7.15    0.21
  -1  -1   2    7.35    0.21
  -1  -1   2    7.28    0.18
  -1  -1   2    7.38    0.20
  -1  -1   2    7.39    0.20
  -1  -1   2    7.21    0.23
  -1  -1   2    6.68    0.19
   0   1  -2   49.32    1.27
   0   1  -2   49.39    1.22
   0   1  -2   50.43    1.27
   0   1  -2   50.14    1.22
   0  -1   2   51.04    1.19
   0  -1   2   49.65    1.22
   0  -1   2   50.15    1.22
  -1   1  -2   95.66    2.32
  -1   1  -2   95.40    2.32
  -1   1  -2   92.17    2.25
  -1   1  -2   95.74    2.42
  -1   1  -2   90.67    2.27
  -1   1  -2   94.47    2.27
  -1   1  -2   94.11    2.08
  -1   1  -2   93.67    2.42
  -1   1  -2   95.09    2.74
  -1   1  -2   96.13    2.08
  -1   1  -2   94.13    2.16
   1  -1   2   94.13    2.32
   1  -1   2   96.33    2.28
   1  -1   2   94.28    2.08
   1  -1   2   93.68    2.42
   1  -1   2   95.18    2.74
   1  -1   2   98.99    2.74
   1  -1   2   93.77    2.16
   1  -1   2   93.33    2.08
   1  -1   2   93.53    2.28
   1  -1   2   95.10    2.25
   1  -1   2   95.08    2.32
   1  -1   2   94.54    2.42
   1  -1   2   95.26    1.95
  -2   1  -2   24.25    0.64
  -2   1  -2   24.86    0.53
  -2   1  -2   24.86    0.58
  -2   1  -2   24.55    0.61
  -2   1  -2   24.48    0.77
  -2   1  -2   25.30    0.65
  -2   1  -2   24.51    0.62
  -2   1  -2   24.33    0.68
  -2   1  -2   25.14    0.58
  -2   1  -2   24.26    0.65
  -2   1  -2   23.72    0.68
  -2   1  -2   24.91    0.77
   2  -1   2   24.74    0.77
   2  -1   2   24.91    0.54
   2  -1   2   24.88    0.61
   2  -1   2   24.82    0.68
   2  -1   2   25.82    0.68
   2  -1   2   25.20    0.62
   2  -1   2   24.46    0.58
   2  -1   2   24.15    0.64
   2  -1   2   24.97    0.65
  -3   1  -2    0.10    0.09
  -3   1  -2    0.02    0.07
  -3   1  -2    0.05    0.06
  -3   1  -2   -0.01    0.08
  -3   1  -2   -0.01    0.08
  -3   1  -2    0.14    0.10
  -3   1  -2    0.00    0.06
  -3   1  -2    0.03    0.08
  -3   1  -2   -0.04    0.08
  -3   1  -2    0.07    0.06
   3  -1   2   -0.02    0.06
   3  -1   2    0.02    0.08
   3  -1   2    0.11    0.08
   3  -1   2    0.08    0.08
   3  -1   2    0.14    0.05
   3  -1   2    0.12    0.07
   3  -1   2    0.20    0.11
   3  -1   2    0.10    0.06
   3  -1   2    0.10    0.07
  -4   1  -2    1.07    0.14
  -4   1  -2    1.29    0.12
  -4   1  -2    1.12    0.12
  -4   1  -2    1.15    0.14
  -4   1  -2    1.13    0.15
   4  -1   2    1.24    0.14
   4  -1   2    1.06    0.14
   4  -1   2    1.22    0.12
   4  -1   2    1.31    0.12
   4  -1   2    1.08    0.10
  -5   1  -2    2.79    0.22
  -5   1  -2    2.49    0.22
   5  -1   2    3.07    0.17
   5  -1   2    2.80    0.23
   5  -1   2    3.20    0.25
   5   0  -2    0.22    0.13
   5   0  -2    0.12    0.14
  -5   0   2    0.37    0.14
  -5   0   2    0.32    0.13
   4   0  -2    3.54    0.21
   4   0  -2    3.70    0.21
   4   0  -2    3.46    0.25
   4   0  -2    3.91    0.21
   4   0  -2    3.68    0.17
   4   0  -2    3.73    0.13
  -4   0   2    3.70    0.20
  -4   0   2    3.75    0.19
  -4   0   2    3.86    0.18
  -4   0   2    3.98    0.18
  -4   0   2    4.25    0.21
   3   0  -2   21.85    0.63
   3   0  -2   21.84    0.72
   3   0  -2   21.41    0.58
   3   0  -2   22.33    0.53
   3   0  -2   21.03    0.59
   3   0  -2   21.98    0.48
   3   0  -2   22.37    0.61
   3   0  -2   22.85    0.73
   3   0  -2   22.64    0.61
   3   0  -2   22.09    0.64
  -3   0   2   22.15    0.57
  -3   0   2   22.03    0.63
  -3   0   2   22.14    0.63
  -3   0   2   21.70    0.61
  -3   0   2   21.87    0.71
  -3   0   2   21.76    0.60
  -3   0   2   21.23    0.58
  -3   0   2   22.08    0.54
   2   0  -2   12.25    0.41
   2   0  -2   12.51    0.34
   2   0  -2   12.33    0.34
   2   0  -2   12.31    0.36
   2   0  -2   11.95    0.34
   2   0  -2   12.15    0.27
   2   0  -2   12.19    0.36
   2   0  -2   12.21    0.30
   2   0  -2   12.40    0.41
   2   0  -2   11.72    0.33
  -2   0   2   12.46    0.34
  -2   0   2   12.19    0.40
  -2   0   2   12.35    0.31
  -2   0   2   11.90    0.32
  -2   0   2   12.13    0.40
  -2   0   2   12.08    0.36
  -2   0   2   11.83    0.36
  -2   0   2   12.65    0.35
  -2   0   2   12.19    0.34
  -2   0   2   11.73    0.33
   1   0  -2  118.69    3.44
   1   0  -2  116.18    3.04
   1   0  -2  120.36    2.62
   1   0  -2  120.78    2.91
   1   0  -2  118.48    2.86
   1   0  -2  118.30    2.85
   1   0  -2  119.51    2.91
   1   0  -2  120.38    3.04
   1   0  -2  119.13    2.84
   1   0  -2  117.91    3.44
  -1   0   2  119.08    3.04
  -1   0   2  117.30    3.44
  -1   0   2  121.37    3.04
  -1   0   2  119.89    2.84
  -1   0   2  119.62    3.44
  -1   0   2  118.19    2.86
  -1   0   2  116.98    2.46
  -1   0   2  119.60    2.91
  -1   0   2  121.39    2.63
  -1   0   2  123.14    2.86
  -1   0   2  119.55    2.70
  -1   0   2  117.87    2.91
   0   0  -2   35.10    0.85
   0   0  -2   35.17    0.91
   0   0  -2   33.92    0.87
   0   0  -2   35.47    0.91
   0   0  -2   35.38    0.88
   0   0   2   35.68    0.85
   0   0   2   35.70    0.91
   0   0   2   36.16    0.81
   0   0   2   35.28    0.87
   0   0   2   36.17    0.87
   0   0   2   35.47    0.91
   0   0   2   35.59    0.87
  -1   0  -2   20.22    0.46
  -1   0  -2   20.37    0.61
  -1   0  -2   19.78    0.52
  -1   0  -2   19.78    0.42
  -1   0  -2   19.71    0.50
  -1   0  -2   20.39    0.48
  -1   0  -2   20.06    0.46
  -1   0  -2   19.47    0.42
  -1   0  -2   20.49    0.50
  -1   0  -2   20.03    0.54
  -1   0  -2   19.57    0.51
  -1   0  -2   19.90    0.54
   1   0   2   19.04    0.61
   1   0   2   19.77    0.43
   1   0   2   19.74    0.54
   1   0   2   19.89    0.50
   1   0   2   20.42    0.50
   1   0   2   19.92    0.54
   1   0   2   20.78    0.52
   1   0   2   20.61    0.61
   1   0   2   19.70    0.51
   1   0   2   20.53    0.48
   1   0   2   19.80    0.51
   1   0   2   19.70    0.46
  -2   0  -2    4.11    0.16
  -2   0  -2    4.10    0.17
  -2   0  -2    4.35    0.16
  -2   0  -2    4.07    0.14
  -2   0  -2    3.95    0.16
  -2   0  -2    4.14    0.17
  -2   0  -2    3.68    0.21
  -2   0  -2    4.21    0.14
  -2   0  -2    4.42    0.16
  -2   0  -2    3.97    0.15
  -2   0  -2    3.93    0.19
   2   0   2    3.96    0.15
   2   0   2    4.04    0.17
   2   0   2    3.90    0.12
   2   0   2    4.06    0.16
   2   0   2    4.17    0.20
   2   0   2    4.29    0.14
   2   0   2    3.88    0.16
   2   0   2    3.96    0.16
  -3   0  -2   28.82    0.76
  -3   0  -2   29.68    0.92
  -3   0  -2   28.87    0.69
  -3   0  -2   28.67    0.74
  -3   0  -2   28.80    0.81
  -3   0  -2   26.61    0.91
  -3   0  -2   27.86    0.78
  -3   0  -2   29.26    0.69
  -3   0  -2   29.11    0.82
  -3   0  -2   28.99    0.72
   3   0   2   28.58    0.76
   3   0   2   27.84    0.77
   3   0   2   29.06    0.74
   3   0   2   29.11    0.92
   3   0   2   28.10    0.64
   3   0   2   28.03    0.69
   3   0   2   29.12    0.81
   3   0   2   28.39    0.81
  -4   0  -2   22.00    0.63
  -4   0  -2   22.87    0.66
  -4   0  -2   21.30    0.66
  -4   0  -2   23.64    0.59
   4   0   2   23.27    0.63
   4   0   2   23.06    0.54
   4   0   2   22.94    0.66
   4   0   2   22.24    0.67
  -5   0  -2    7.99    0.34
  -5   0  -2    7.06    0.33
   5   0   2    6.94    0.33
   5   0   2    6.73    0.33
   5   0   2    6.72    0.24
   5  -1  -2    2.95    0.22
   5  -1  -2    3.42    0.24
  -5   1   2    3.18    0.23
  -5   1   2    3.37    0.24
  -5   1   2    3.35    0.21
   4  -1  -2    5.49    0.24
   4  -1  -2    5.32    0.17
   4  -1  -2    5.62    0.25
   4  -1  -2    5.48    0.21
   4  -1  -2    5.75    0.26
   4  -1  -2    5.38    0.23
  -4   1   2    5.41    0.25
  -4   1   2    5.46    0.24
  -4   1   2    5.67    0.22
  -4   1   2    5.34    0.21
  -4   1   2    5.62    0.23
   3  -1  -2   34.13    0.88
   3  -1  -2   33.78    0.90
   3  -1  -2   34.48    0.73
   3  -1  -2   33.93    0.94
   3  -1  -2   35.21    0.87
   3  -1  -2   33.53    1.07
   3  -1  -2   34.38    1.07
   3  -1  -2   32.95    0.94
   3  -1  -2   33.11    1.06
   3  -1  -2   34.25    0.80
  -3   1   2   33.99    0.89
  -3   1   2   34.70    0.94
  -3   1   2   33.59    0.87
  -3   1   2   34.53    0.94
  -3   1   2   33.59    0.90
  -3   1   2   34.76    0.81
  -3   1   2   34.35    0.84
  -3   1   2   35.11    0.81
  -3   1   2   34.76    1.06
   2  -1  -2   46.94    1.21
   2  -1  -2   49.05    1.08
   2  -1  -2   49.52    1.21
   2  -1  -2   48.28    1.43
   2  -1  -2   48.22    1.01
   2  -1  -2   46.67    1.26
   2  -1  -2   48.54    1.18
   2  -1  -2   46.81    1.19
   2  -1  -2   47.84    1.12
   2  -1  -2   46.27    1.43
   2  -1  -2   49.75    1.27
  -2   1   2   48.31    1.26
  -2   1   2   48.47    1.43
  -2   1   2   47.04    1.09
  -2   1   2   49.25    1.43
  -2   1   2   48.29    1.26
  -2   1   2   48.04    1.18
  -2   1   2   48.51    1.21
  -2   1   2   47.65    1.09
  -2   1   2   47.58    1.21
  -2   1   2   49.03    1.12
  -2   1   2   46.79    1.19
   1  -1  -2   26.00    0.55
   1  -1  -2   26.62    0.66
   1  -1  -2   26.55    0.79
   1  -1  -2   26.99    0.60
   1  -1  -2   26.68    0.70
   1  -1  -2   26.65    0.67
   1  -1  -2   26.14    0.55
   1  -1  -2   26.65    0.67
   1  -1  -2   26.70    0.80
   1  -1  -2   26.63    0.70
   1  -1  -2   26.65    0.62
   1  -1  -2   27.71    0.66
  -1   1   2   26.49    0.60
  -1   1   2   26.26    0.70
  -1   1   2   26.52    0.60
  -1   1   2   27.09    0.66
  -1   1   2   26.94    0.67
  -1   1   2   26.97    0.79
  -1   1   2   26.50    0.67
  -1   1   2   26.65    0.70
  -1   1   2   26.87    0.62
  -1   1   2   26.83    0.79
  -1   1   2   27.01    0.66
  -1   1   2   26.94    0.56
  -1   1   2   26.38    0.66
   0  -1  -2    0.01    0.03
   0  -1  -2    0.07    0.04
   0  -1  -2   -0.04    0.03
   0  -1  -2    0.04    0.03
   0  -1  -2    0.07    0.04
   0  -1  -2    0.03    0.03
   0  -1  -2    0.01    0.02
   0  -1  -2    0.06    0.05
   0  -1  -2    0.06    0.02
   0  -1  -2    0.12    0.05
   0   1   2   -0.02    0.03
   0   1   2    0.05    0.03
   0   1   2    0.09    0.05
   0   1   2    0.02    0.03
   0   1   2    0.06    0.04
   0   1   2    0.05    0.02
   0   1   2   -0.01    0.03
   0   1   2    0.03    0.05
  -1  -1  -2   34.03    0.84
  -1  -1  -2   33.82    0.71
  -1  -1  -2   34.03    0.79
  -1  -1  -2   32.87    1.01
  -1  -1  -2   33.65    0.86
  -1  -1  -2   34.07    1.01
  -1  -1  -2   34.21    0.86
  -1  -1  -2   33.47    0.71
  -1  -1  -2   32.73    0.89
  -1  -1  -2   35.22    0.77
  -1  -1  -2   34.08    0.89
   1   1   2   33.68    0.84
   1   1   2   32.57    0.77
   1   1   2   33.94    1.01
   1   1   2   34.49    0.86
   1   1   2   33.63    0.71
   1   1   2   33.73    0.89
   1   1   2   33.26    0.84
   1   1   2   34.89    0.84
   1   1   2   33.45    0.85
   1   1   2   35.21    1.01
   1   1   2   34.34    0.89
  -2  -1  -2   50.34    1.26
  -2  -1  -2   50.13    1.32
  -2  -1  -2   49.48    1.13
  -2  -1  -2   50.16    1.49
  -2  -1  -2   49.83    1.17
  -2  -1  -2   50.79    1.26
  -2  -1  -2   48.60    1.22
  -2  -1  -2   49.80    1.32
  -2  -1  -2   49.35    1.24
   2   1   2   47.83    1.05
   2   1   2   48.67    1.13
   2   1   2   50.88    1.49
   2   1   2   49.06    1.22
   2   1   2   48.93    1.31
   2   1   2   49.98    1.49
   2   1   2   50.14    1.32
   2   1   2   49.90    1.24
   2   1   2   50.17    1.32
   2   1   2   49.62    1.26
  -3  -1  -2   15.78    0.55
  -3  -1  -2   15.92    0.45
  -3  -1  -2   15.40    0.49
  -3  -1  -2   15.65    0.43
  -3  -1  -2   15.63    0.55
  -3  -1  -2   13.84    0.54
  -3  -1  -2   15.18    0.47
  -3  -1  -2   15.55    0.45
  -3  -1  -2   16.06    0.41
   3   1   2   15.21    0.37
   3   1   2   15.47    0.46
   3   1   2   15.15    0.49
   3   1   2   14.87    0.54
   3   1   2   16.17    0.44
   3   1   2   15.99    0.46
   3   1   2   15.74    0.49
   3   1   2   15.31    0.41
  -4  -1  -2   -0.04    0.11
  -4  -1  -2    0.01    0.09
  -4  -1  -2   -0.02    0.09
  -4  -1  -2   -0.19    0.10
   4   1   2    0.01    0.11
   4   1   2   -0.02    0.07
   4   1   2    0.00    0.10
  -5  -1  -2    2.08    0.21
  -5  -1  -2    2.20    0.21
   5   1   2    2.02    0.21
   5   1   2    2.21    0.14
   5   1   2    1.84    0.20
   5  -2  -2    0.53    0.15
   5  -2  -2    0.42    0.15
  -5   2   2    0.48    0.12
  -5   2   2    0.35    0.14
  -5   2   2    0.44    0.15
   4  -2  -2    5.19    0.25
   4  -2  -2    5.24    0.22
   4  -2  -2    5.66    0.25
   4  -2  -2    5.42    0.17
   4  -2  -2    5.51    0.25
   4  -2  -2    5.30    0.20
  -4   2   2    5.34    0.25
  -4   2   2    5.21    0.22
  -4   2   2    5.33    0.21
  -4   2   2    4.87    0.23
  -4   2   2    5.35    0.21
   3  -2  -2   23.69    0.53
   3  -2  -2   24.52    0.58
   3  -2  -2   22.57    0.60
   3  -2  -2   23.62    0.78
   3  -2  -2   24.53    0.78
   3  -2  -2   23.85    0.69
   3  -2  -2   23.64    0.64
   3  -2  -2   24.35    0.66
   3  -2  -2   23.89    0.63
  -3   2   2   22.88    0.65
  -3   2   2   23.86    0.63
  -3   2   2   23.33    0.58
  -3   2   2   24.48    0.69
  -3   2   2   24.57    0.61
  -3   2   2   23.98    0.59
  -3   2   2   24.73    0.77
  -3   2   2   24.23    0.65
  -3   2   2   24.22    0.68
   2  -2  -2   26.03    0.60
   2  -2  -2   25.80    0.71
   2  -2  -2   26.81    0.68
   2  -2  -2   26.17    0.65
   2  -2  -2   25.39    0.68
   2  -2  -2   25.12    0.66
   2  -2  -2   25.88    0.55
   2  -2  -2   25.18    0.71
   2  -2  -2   25.48    0.80
   2  -2  -2   25.30    0.80
   2  -2  -2   26.19    0.63
  -2   2   2   26.39    0.68
  -2   2   2   25.08    0.66
  -2   2   2   25.88    0.71
  -2   2   2   25.80    0.65
  -2   2   2   25.87    0.68
  -2   2   2   26.92    0.80
  -2   2   2   26.10    0.79
  -2   2   2   26.05    0.71
  -2   2   2   26.17    0.63
  -2   2   2   25.35    0.61
  -2   2   2   25.66    0.61
   1  -2  -2    6.92    0.17
   1  -2  -2    7.27    0.24
   1  -2  -2    6.65    0.18
   1  -2  -2    6.78    0.18
   1  -2  -2    6.87    0.20
   1  -2  -2    6.36    0.24
   1  -2  -2    6.70    0.20
   1  -2  -2    6.64    0.15
   1  -2  -2    6.81    0.21
   1  -2  -2    6.60    0.20
   1  -2  -2    6.80    0.21
  -1   2   2    6.55    0.18
  -1   2   2    6.85    0.20
  -1   2   2    6.62    0.19
  -1   2   2    7.44    0.24
  -1   2   2    7.03    0.20
  -1   2   2    6.52    0.20
  -1   2   2    6.63    0.21
  -1   2   2    6.88    0.18
  -1   2   2    6.60    0.23
  -1   2   2    6.78    0.21
  -1   2   2    6.53    0.18
   0  -2  -2  101.10    2.93
   0  -2  -2  101.42    2.49
   0  -2  -2  103.08    2.09
   0  -2  -2  102.77    2.09
   0  -2  -2   98.14    2.50
   0  -2  -2  105.05    2.23
   0  -2  -2  102.59    2.60
   0  -2  -2  102.70    2.43
   0  -2  -2   94.48    2.44
   0  -2  -2  102.03    2.94
   0  -2  -2   97.54    2.61
   0   2   2   97.58    2.45
   0   2   2  103.07    2.93
   0   2   2  101.90    2.93
   0   2   2  102.65    2.44
   0   2   2   97.80    2.61
   0   2   2   99.90    2.09
   0   2   2  105.13    2.09
   0   2   2  102.29    2.23
   0   2   2  103.56    2.23
   0   2   2  102.96    2.59
   0   2   2   98.67    2.49
   0   2   2   98.85    2.50
  -1  -2  -2   34.39    0.85
  -1  -2  -2   32.96    0.88
  -1  -2  -2   33.20    0.70
  -1  -2  -2   32.19    1.00
  -1  -2  -2   32.28    0.84
  -1  -2  -2   33.31    0.83
  -1  -2  -2   33.19    1.00
  -1  -2  -2   32.75    0.88
  -1  -2  -2   33.15    0.88
  -1  -2  -2   33.27    0.76
   1   2   2   32.54    0.76
   1   2   2   33.54    1.00
   1   2   2   34.00    0.88
   1   2   2   32.56    0.70
   1   2   2   32.82    0.88
   1   2   2   32.60    0.83
   1   2   2   33.62    1.00
   1   2   2   33.16    0.85
   1   2   2   33.94    0.85
   1   2   2   33.51    0.83
  -2  -2  -2    1.57    0.11
  -2  -2  -2    1.57    0.13
  -2  -2  -2    1.68    0.12
  -2  -2  -2    1.54    0.12
  -2  -2  -2    1.49    0.11
  -2  -2  -2    1.81    0.15
  -2  -2  -2    1.49    0.10
  -2  -2  -2    1.56    0.09
  -2  -2  -2    1.64    0.11
   2   2   2    1.72    0.14
   2   2   2    1.57    0.13
   2   2   2    1.78    0.12
   2   2   2    1.58    0.09
   2   2   2    1.69    0.12
   2   2   2    1.69    0.12
   2   2   2    1.60    0.11
   2   2   2    1.68    0.10
   2   2   2    1.45    0.11
  -3  -2  -2    0.30    0.11
  -3  -2  -2    0.52    0.09
  -3  -2  -2    0.48    0.09
  -3  -2  -2    0.45    0.09
  -3  -2  -2    0.37    0.10
  -3  -2  -2    0.42    0.08
  -3  -2  -2    0.60    0.12
  -3  -2  -2    0.40    0.10
  -3  -2  -2    0.33    0.10
   3   2   2    0.38    0.08
   3   2   2    0.40    0.09
   3   2   2    0.20    0.08
   3   2   2    0.42    0.10
   3   2   2    0.40    0.07
   3   2   2    0.43    0.12
   3   2   2    0.31    0.09
   3   2   2    0.59    0.11
   3   2   2    0.52    0.10
  -4  -2  -2    2.45    0.19
  -4  -2  -2    2.54    0.16
  -4  -2  -2    2.38    0.19
  -4  -2  -2    2.28    0.18
   4   2   2    2.41    0.19
   4   2   2    2.47    0.20
   4   2   2    2.46    0.14
  -5  -2  -2    0.23    0.15
  -5  -2  -2    0.25    0.15
   5   2   2    0.40    0.16
   5   2   2    0.32    0.16
   5   2   2    0.30    0.10
   5  -3  -2    1.11    0.16
   5  -3  -2    1.17    0.17
   5  -3  -2    0.80    0.09
  -5   3   2    0.87    0.13
  -5   3   2    0.88    0.16
  -5   3   2    0.99    0.17
   4  -3  -2    1.89    0.16
   4  -3  -2    1.72    0.14
   4  -3  -2    1.96    0.17
   4  -3  -2    1.96    0.11
   4  -3  -2    2.24    0.16
   4  -3  -2    1.84    0.17
  -4   3   2    2.07    0.17
  -4   3   2    2.00    0.14
  -4   3   2    1.75    0.15
  -4   3   2    1.93    0.15
  -4   3   2    2.12    0.14
   3  -3  -2    9.01    0.37
   3  -3  -2    9.19    0.31
   3  -3  -2    9.28    0.37
   3  -3  -2    9.36    0.28
   3  -3  -2    9.70    0.31
   3  -3  -2    8.91    0.23
   3  -3  -2    9.54    0.33
  -3   3   2    9.58    0.32
  -3   3   2    9.08    0.27
  -3   3   2    9.65    0.37
  -3   3   2    9.05    0.28
  -3   3   2    8.76    0.30
  -3   3   2    8.74    0.27
  -3   3   2    9.27    0.32
  -3   3   2    8.96    0.28
  -3   3   2    9.04    0.31
   2  -3  -2    2.62    0.12
   2  -3  -2    2.45    0.10
   2  -3  -2    2.58    0.09
   2  -3  -2    2.82    0.13
   2  -3  -2    2.73    0.13
   2  -3  -2    2.78    0.14
   2  -3  -2    2.63    0.15
   2  -3  -2    2.42    0.17
   2  -3  -2    2.80    0.13
   2  -3  -2    2.71    0.13
  -2   3   2    2.74    0.15
  -2   3   2    2.80    0.13
  -2   3   2    2.73    0.14
  -2   3   2    2.68    0.11
  -2   3   2    2.56    0.11
  -2   3   2    2.70    0.14
  -2   3   2    2.61    0.13
  -2   3   2    2.70    0.12
  -2   3   2    2.58    0.12
  -2   3   2    2.68    0.14
  -2   3   2    2.66    0.17
   1  -3  -2   32.85    0.77
   1  -3  -2   33.01    0.87
   1  -3  -2   31.64    0.83
   1  -3  -2   32.01    0.82
   1  -3  -2   33.55    0.75
   1  -3  -2   33.86    0.84
   1  -3  -2   31.84    0.99
   1  -3  -2   32.37    0.99
   1  -3  -2   32.86    0.74
   1  -3  -2   33.68    0.87
   1  -3  -2   33.04    0.69
   1  -3  -2   32.36    0.69
  -1   3   2   32.86    0.84
  -1   3   2   32.71    0.75
  -1   3   2   32.04    0.82
  -1   3   2   32.75    0.75
  -1   3   2   33.20    0.98
  -1   3   2   32.83    0.87
  -1   3   2   32.08    0.87
  -1   3   2   33.06    0.83
  -1   3   2   33.44    0.69
  -1   3   2   32.26    0.82
   0  -3  -2   21.02    0.60
   0  -3  -2   20.01    0.44
   0  -3  -2   21.09    0.57
   0  -3  -2   21.80    0.66
   0  -3  -2   20.47    0.64
   0  -3  -2   20.44    0.44
   0  -3  -2   20.97    0.58
   0  -3  -2   20.56    0.55
   0  -3  -2   20.24    0.56
   0  -3  -2   20.44    0.48
   0   3   2   20.33    0.64
   0   3   2   21.44    0.60
   0   3   2   19.67    0.44
   0   3   2   22.03    0.56
   0   3   2   19.77    0.65
   0   3   2   20.39    0.48
   0   3   2   20.26    0.56
   0   3   2   20.95    0.57
   0   3   2   20.83    0.57
   0   3   2   20.74    0.45
   0   3   2   20.90    0.49
   0   3   2   20.21    0.54
  -1  -3  -2    0.92    0.07
  -1  -3  -2    1.08    0.08
  -1  -3  -2    0.93    0.08
  -1  -3  -2    1.11    0.10
  -1  -3  -2    1.09    0.09
  -1  -3  -2    0.89    0.08
  -1  -3  -2    0.88    0.09
  -1  -3  -2    1.34    0.10
  -1  -3  -2    1.28    0.06
   1   3   2    1.03    0.09
   1   3   2    1.09    0.09
   1   3   2    0.92    0.08
   1   3   2    1.11    0.08
   1   3   2    1.04    0.08
   1   3   2    1.13    0.10
   1   3   2    1.10    0.09
   1   3   2    1.04    0.07
   1   3   2    1.09    0.10
   1   3   2    0.89    0.08
  -2  -3  -2    0.69    0.10
  -2  -3  -2    0.52    0.08
  -2  -3  -2    0.66    0.08
  -2  -3  -2    0.08    0.10
  -2  -3  -2    0.52    0.07
  -2  -3  -2    0.54    0.05
  -2  -3  -2    0.57    0.08
  -2  -3  -2    0.46    0.08
  -2  -3  -2    0.49    0.08
   2   3   2    0.53    0.08
   2   3   2    0.45    0.08
   2   3   2    0.53    0.08
   2   3   2    0.46    0.06
   2   3   2    0.59    0.09
   2   3   2    0.48    0.08
   2   3   2    0.50    0.07
   2   3   2    0.64    0.10
   2   3   2    0.56    0.08
  -3  -3  -2   43.87    1.23
  -3  -3  -2   43.95    1.14
  -3  -3  -2   44.64    1.15
  -3  -3  -2   44.13    1.17
  -3  -3  -2   44.49    1.04
  -3  -3  -2   46.15    1.23
   3   3   2   43.45    1.17
   3   3   2   43.95    1.22
   3   3   2   44.02    1.15
   3   3   2   43.34    1.05
   3   3   2   45.61    1.23
   3   3   2   44.63    0.97
   3   3   2   44.35    1.14
  -4  -3  -2    0.97    0.14
  -4  -3  -2    1.00    0.12
  -4  -3  -2    0.81    0.14
  -4  -3  -2    0.94    0.14
   4   3   2    0.93    0.15
   4   3   2    1.01    0.10
   4   3   2    1.08    0.15
  -5  -3  -2   -0.08    0.14
  -5  -3  -2    0.16    0.15
   5   3   2    0.16    0.15
   5   3   2    0.28    0.16
   5   3   2    0.08    0.10
   5  -4  -2    0.08    0.14
   5  -4  -2    0.16    0.08
   5  -4  -2    0.24    0.14
  -5   4   2    0.13    0.14
  -5   4   2    0.03    0.11
  -5   4   2    0.15    0.13
   4  -4  -2    0.90    0.13
   4  -4  -2    1.05    0.12
   4  -4  -2    1.06    0.15
   4  -4  -2    1.04    0.09
   4  -4  -2    0.96    0.14
  -4   4   2    1.21    0.15
  -4   4   2    0.92    0.13
  -4   4   2    1.06    0.12
  -4   4   2    1.05    0.11
   3  -4  -2    7.33    0.28
   3  -4  -2    7.51    0.29
   3  -4  -2    7.22    0.24
   3  -4  -2    7.20    0.31
   3  -4  -2    7.47    0.27
   3  -4  -2    7.00    0.33
   3  -4  -2    7.25    0.20
   3  -4  -2    7.43    0.26
  -3   4   2    7.91    0.28
  -3   4   2    7.09    0.31
  -3   4   2    7.13    0.23
  -3   4   2    7.25    0.24
  -3   4   2    6.87    0.24
  -3   4   2    7.37    0.27
  -3   4   2    7.49    0.26
  -3   4   2    7.39    0.23
  -3   4   2    7.35    0.29
   2  -4  -2   41.31    1.11
   2  -4  -2   41.38    1.25
   2  -4  -2   41.74    0.95
   2  -4  -2   41.23    1.25
   2  -4  -2   41.42    0.88
   2  -4  -2   41.40    1.06
   2  -4  -2   40.65    1.06
   2  -4  -2   41.85    0.98
   2  -4  -2   41.53    1.04
  -2   4   2   40.75    1.10
  -2   4   2   40.14    1.11
  -2   4   2   41.11    1.25
  -2   4   2   42.16    1.25
  -2   4   2   41.08    0.95
  -2   4   2   40.91    1.02
  -2   4   2   41.12    1.06
  -2   4   2   41.42    0.95
  -2   4   2   39.51    1.04
   1  -4  -2   31.22    0.75
   1  -4  -2   30.99    0.80
   1  -4  -2   31.73    0.97
   1  -4  -2   33.16    0.86
   1  -4  -2   31.98    0.82
   1  -4  -2   31.18    0.67
   1  -4  -2   32.12    0.73
   1  -4  -2   31.59    0.82
   1  -4  -2   31.30    0.96
  -1   4   2   30.84    0.73
  -1   4   2   31.49    0.82
  -1   4   2   31.69    0.80
  -1   4   2   30.62    0.96
  -1   4   2   31.98    0.80
  -1   4   2   30.99    0.85
  -1   4   2   30.84    0.96
  -1   4   2   31.71    0.86
  -1   4   2   33.19    0.73
  -1   4   2   30.84    0.81
   0  -4  -2   18.91    0.56
   0  -4  -2   18.77    0.61
   0  -4  -2   19.28    0.42
   0  -4  -2   19.19    0.46
   0  -4  -2   19.38    0.53
   0  -4  -2   19.35    0.63
   0  -4  -2   19.55    0.54
   0  -4  -2   18.96    0.54
   0  -4  -2   18.08    0.57
   0   4   2   18.53    0.52
   0   4   2   19.02    0.54
   0   4   2   18.89    0.42
   0   4   2   19.12    0.55
   0   4   2   20.22    0.57
   0   4   2   21.77    0.64
   0   4   2   19.30    0.47
   0   4   2   19.64    0.61
   0   4   2   19.44    0.54
   0   4   2   19.05    0.46
  -1  -4  -2   37.45    0.93
  -1  -4  -2   35.84    1.11
  -1  -4  -2   35.47    0.76
  -1  -4  -2   34.71    0.93
  -1  -4  -2   36.48    0.97
  -1  -4  -2   35.35    1.09
  -1  -4  -2   35.31    0.83
  -1  -4  -2   35.36    0.91
   1   4   2   36.52    1.09
   1   4   2   35.23    1.10
   1   4   2   35.97    0.93
   1   4   2   35.77    0.77
   1   4   2   36.57    0.93
   1   4   2   36.12    0.91
   1   4   2   33.69    0.90
   1   4   2   35.05    0.83
   1   4   2   35.53    0.97
   1   4   2   35.58    0.83
   1   4   2   36.36    0.97
   1   4   2   35.74    0.93
  -2  -4  -2   46.71    1.19
  -2  -4  -2   45.01    1.16
  -2  -4  -2   45.08    0.98
  -2  -4  -2   45.28    1.16
  -2  -4  -2   46.36    1.24
  -2  -4  -2   45.91    1.06
  -2  -4  -2   44.98    1.40
  -2  -4  -2   47.10    1.24
   2   4   2   46.27    1.24
   2   4   2   45.07    1.19
   2   4   2   46.09    1.17
   2   4   2   46.03    0.98
   2   4   2   45.98    1.24
   2   4   2   44.81    1.16
   2   4   2   46.57    1.40
   2   4   2   44.80    1.06
  -3  -4  -2    5.57    0.23
  -3  -4  -2    5.75    0.17
  -3  -4  -2    5.75    0.21
  -3  -4  -2    5.28    0.25
  -3  -4  -2    5.28    0.24
  -3  -4  -2    5.32    0.25
   3   4   2    5.14    0.23
   3   4   2    5.64    0.19
   3   4   2    5.17    0.21
   3   4   2    5.20    0.24
   3   4   2    5.44    0.25
  -4  -4  -2    0.52    0.08
  -4  -4  -2    0.80    0.15
  -4  -4  -2    0.80    0.14
   4   4   2    0.75    0.10
   4   4   2    0.69    0.14
   4   4   2    0.51    0.14
   5  -5  -2   -0.02    0.14
   5  -5  -2    0.16    0.14
   5  -5  -2   -0.07    0.08
  -5   5   2    0.04    0.14
  -5   5   2    0.03    0.14
   4  -5  -2    7.38    0.30
   4  -5  -2    6.53    0.29
   4  -5  -2    6.72    0.26
   4  -5  -2    7.04    0.21
  -4   5   2    7.13    0.30
  -4   5   2    7.41    0.30
  -4   5   2    7.48    0.26
  -4   5   2    7.04    0.26
   3  -5  -2   12.75    0.34
   3  -5  -2   12.16    0.46
   3  -5  -2   12.15    0.47
   3  -5  -2   12.81    0.39
   3  -5  -2   11.76    0.41
   3  -5  -2   12.09    0.39
   3  -5  -2   12.47    0.30
   3  -5  -2   11.91    0.35
   3  -5  -2   12.18    0.41
  -3   5   2   12.47    0.46
  -3   5   2   12.67    0.35
  -3   5   2   12.58    0.35
  -3   5   2   12.49    0.39
  -3   5   2   11.87    0.38
  -3   5   2   12.18    0.41
  -3   5   2   12.66    0.36
  -3   5   2   12.34    0.36
  -3   5   2   11.74    0.41
   2  -5  -2   20.55    0.69
   2  -5  -2   21.53    0.52
   2  -5  -2   22.08    0.52
   2  -5  -2   21.14    0.62
   2  -5  -2   21.31    0.47
   2  -5  -2   21.41    0.58
   2  -5  -2   21.30    0.69
   2  -5  -2   20.84    0.59
   2  -5  -2   21.71    0.62
   2  -5  -2   20.92    0.54
  -2   5   2   21.20    0.58
  -2   5   2   20.83    0.61
  -2   5   2   21.01    0.69
  -2   5   2   21.20    0.53
  -2   5   2   21.72    0.62
  -2   5   2   21.85    0.56
  -2   5   2   21.57    0.70
  -2   5   2   22.13    0.59
  -2   5   2   21.01    0.52
   1  -5  -2    4.32    0.13
   1  -5  -2    4.34    0.18
   1  -5  -2    4.10    0.21
   1  -5  -2    4.25    0.18
   1  -5  -2    4.55    0.18
   1  -5  -2    4.26    0.15
   1  -5  -2    4.34    0.15
   1  -5  -2    4.14    0.19
   1  -5  -2    4.45    0.22
   1  -5  -2    3.41    0.17
  -1   5   2    4.47    0.19
  -1   5   2    4.62    0.21
  -1   5   2    4.28    0.18
  -1   5   2    4.13    0.18
  -1   5   2    4.52    0.19
  -1   5   2    4.53    0.20
  -1   5   2    4.23    0.20
  -1   5   2    4.26    0.17
  -1   5   2    4.17    0.15
  -1   5   2    4.26    0.15
   0  -5  -2   44.29    1.35
   0  -5  -2   43.51    1.20
   0  -5  -2   45.11    1.16
   0  -5  -2   45.51    1.13
   0  -5  -2   43.21    1.33
   0  -5  -2   44.62    1.01
   0  -5  -2   45.73    1.15
   0  -5  -2   43.89    1.01
   0  -5  -2   44.27    0.94
   0   5   2   44.69    1.19
   0   5   2   46.41    1.16
   0   5   2   41.94    1.34
   0   5   2   38.14    1.33
   0   5   2   44.54    1.02
   0   5   2   44.36    1.01
   0   5   2   45.68    1.21
   0   5   2   45.57    1.15
   0   5   2   43.79    1.12
  -1  -5  -2   17.18    0.51
  -1  -5  -2   16.33    0.47
  -1  -5  -2   16.31    0.48
  -1  -5  -2   16.36    0.42
  -1  -5  -2   15.72    0.49
  -1  -5  -2   17.05    0.56
  -1  -5  -2   16.14    0.37
  -1  -5  -2   15.75    0.57
  -1  -5  -2   15.94    0.47
   1   5   2   19.25    0.58
   1   5   2   16.44    0.48
   1   5   2   16.29    0.46
   1   5   2   16.18    0.42
   1   5   2   16.12    0.47
   1   5   2   16.87    0.50
   1   5   2   15.75    0.55
   1   5   2   15.98    0.42
   1   5   2   16.02    0.38
   1   5   2   16.75    0.51
  -2  -5  -2    0.03    0.09
  -2  -5  -2   -0.02    0.06
  -2  -5  -2    0.08    0.08
  -2  -5  -2   -0.04    0.07
  -2  -5  -2   -0.03    0.05
  -2  -5  -2    0.06    0.08
  -2  -5  -2   -0.02    0.10
  -2  -5  -2    0.02    0.08
   2   5   2   -0.04    0.05
   2   5   2    0.13    0.08
   2   5   2    0.00    0.09
   2   5   2    0.07    0.08
   2   5   2    0.01    0.08
   2   5   2    0.03    0.07
   2   5   2   -0.06    0.08
   2   5   2    0.06    0.07
  -3  -5  -2    3.74    0.18
  -3  -5  -2    3.40    0.22
  -3  -5  -2    3.66    0.21
  -3  -5  -2    3.57    0.21
  -3  -5  -2    3.74    0.15
  -3  -5  -2    3.43    0.20
   3   5   2    3.78    0.22
   3   5   2    3.64    0.21
   3   5   2    3.63    0.15
  -4  -5  -2    2.04    0.13
  -4  -5  -2    1.73    0.18
  -4  -5  -2    1.76    0.18
   4   5   2    1.98    0.19
   4   5   2    1.79    0.18
   4   5   2    2.36    0.15
   5  -6  -2    1.41    0.19
   5  -6  -2    1.89    0.12
   5  -6  -2    2.00    0.21
  -5   6   2    1.91    0.20
  -5   6   2    1.76    0.20
   4  -6  -2    3.51    0.22
   4  -6  -2    3.20    0.20
   4  -6  -2    3.38    0.15
   4  -6  -2    3.54    0.21
  -4   6   2    3.51    0.23
  -4   6   2    3.34    0.21
  -4   6   2    3.17    0.17
  -4   6   2    3.27    0.19
   3  -6  -2    0.59    0.09
   3  -6  -2    0.50    0.11
   3  -6  -2    0.47    0.07
   3  -6  -2    0.63    0.11
   3  -6  -2    0.48    0.09
   3  -6  -2    0.63    0.12
   3  -6  -2    0.80    0.11
   3  -6  -2    0.51    0.09
   3  -6  -2    0.45    0.11
  -3   6   2    0.52    0.11
  -3   6   2    0.48    0.10
  -3   6   2    0.60    0.08
  -3   6   2    0.48    0.10
  -3   6   2    0.66    0.12
  -3   6   2    0.44    0.09
  -3   6   2    0.36    0.08
   2  -6  -2    9.30    0.33
   2  -6  -2    9.73    0.32
   2  -6  -2    9.13    0.28
   2  -6  -2    9.03    0.27
   2  -6  -2    9.54    0.33
   2  -6  -2    9.27    0.24
   2  -6  -2    9.02    0.27
   2  -6  -2    9.42    0.37
   2  -6  -2    9.01    0.30
  -2   6   2    9.22    0.27
  -2   6   2    9.00    0.32
  -2   6   2    9.34    0.30
  -2   6   2    9.62    0.33
  -2   6   2    9.61    0.31
  -2   6   2    9.46    0.27
  -2   6   2    9.52    0.38
   1  -6  -2   46.46    1.45
   1  -6  -2   49.52    1.30
   1  -6  -2   48.55    1.01
   1  -6  -2   47.92    1.45
   1  -6  -2   48.76    1.22
   1  -6  -2   47.65    1.24
   1  -6  -2   46.28    1.09
   1  -6  -2   47.14    1.29
   1  -6  -2   46.35    1.10
  -1   6   2   49.10    1.25
  -1   6   2   47.73    1.29
  -1   6   2   47.28    1.10
  -1   6   2   49.25    1.46
  -1   6   2   45.94    1.21
  -1   6   2   47.30    1.10
  -1   6   2   46.25    1.21
  -1   6   2   47.75    1.30
   0  -6  -2   31.32    0.90
   0  -6  -2   33.32    0.86
   0  -6  -2   30.94    0.76
   0  -6  -2   31.61    0.70
   0  -6  -2   33.68    1.03
   0  -6  -2   31.52    1.00
   0  -6  -2   32.66    0.87
   0  -6  -2   31.36    0.76
   0  -6  -2   34.56    0.93
   0   6   2   31.88    0.84
   0   6   2   32.08    0.90
   0   6   2   32.08    0.76
   0   6   2   33.36    0.92
   0   6   2   32.21    0.83
   0   6   2   30.46    1.02
   0   6   2   31.73    0.77
   0   6   2   32.67    0.88
  -1  -6  -2   25.55    0.80
  -1  -6  -2   28.74    0.76
  -1  -6  -2   26.82    0.66
  -1  -6  -2   27.42    0.60
  -1  -6  -2   26.98    0.78
  -1  -6  -2   25.81    0.76
  -1  -6  -2   27.76    0.88
  -1  -6  -2   26.60    0.89
   1   6   2   27.00    0.76
   1   6   2   27.37    0.81
   1   6   2   27.56    0.67
   1   6   2   27.90    0.74
   1   6   2   27.06    0.66
   1   6   2   26.72    0.72
   1   6   2   26.85    0.89
   1   6   2   28.16    0.61
   1   6   2   28.24    0.79
  -2  -6  -2    3.56    0.20
  -2  -6  -2    3.96    0.25
  -2  -6  -2    3.73    0.26
  -2  -6  -2    4.08    0.20
  -2  -6  -2    4.16    0.22
  -2  -6  -2    4.10    0.18
  -2  -6  -2    4.02    0.14
   2   6   2    3.64    0.22
   2   6   2    3.70    0.20
   2   6   2    4.04    0.25
   2   6   2    3.88    0.21
   2   6   2    4.05    0.21
   2   6   2    4.08    0.24
   2   6   2    3.60    0.17
   2   6   2    4.02    0.15
   2   6   2    3.91    0.17
  -3  -6  -2    5.39    0.26
  -3  -6  -2    5.83    0.27
  -3  -6  -2    5.95    0.19
  -3  -6  -2    6.02    0.24
   3   6   2    5.17    0.27
   3   6   2    6.15    0.28
   3   6   2    6.22    0.24
   3   6   2    5.80    0.20
  -4  -6  -2    0.40    0.14
  -4  -6  -2    0.52    0.14
  -4  -6  -2    0.26    0.08
   4   6   2    0.49    0.16
   4   6   2    0.45    0.15
   4   6   2    0.41    0.10
   5  -7  -2    0.07    0.15
   5  -7  -2    0.26    0.17
  -5   7   2   -0.06    0.15
  -5   7   2    0.13    0.15
   4  -7  -2    0.06    0.12
   4  -7  -2    0.24    0.12
   4  -7  -2    0.25    0.11
   4  -7  -2    0.19    0.08
  -4   7   2    0.04    0.08
  -4   7   2    0.29    0.13
  -4   7   2    0.03    0.12
   3  -7  -2    6.69    0.28
   3  -7  -2    6.77    0.24
   3  -7  -2    6.84    0.24
   3  -7  -2    7.03    0.28
   3  -7  -2    6.86    0.30
   3  -7  -2    6.34    0.20
   3  -7  -2    6.89    0.25
  -3   7   2    7.07    0.28
  -3   7   2    7.06    0.25
  -3   7   2    6.58    0.30
  -3   7   2    6.34    0.24
  -3   7   2    6.32    0.24
  -3   7   2    6.67    0.28
   2  -7  -2    6.77    0.32
   2  -7  -2    6.80    0.23
   2  -7  -2    6.87    0.29
   2  -7  -2    6.86    0.20
   2  -7  -2    7.13    0.33
   2  -7  -2    7.14    0.27
   2  -7  -2    6.78    0.28
   2  -7  -2    7.19    0.23
   2  -7  -2    6.97    0.27
   2  -7  -2    6.69    0.23
  -2   7   2    6.91    0.27
  -2   7   2    6.86    0.23
  -2   7   2    6.90    0.28
  -2   7   2    7.53    0.30
  -2   7   2    6.92    0.27
  -2   7   2    6.96    0.34
  -2   7   2    6.97    0.23
   1  -7  -2   17.78    0.45
   1  -7  -2   17.51    0.45
   1  -7  -2   17.64    0.40
   1  -7  -2   17.26    0.55
   1  -7  -2   18.50    0.61
   1  -7  -2   16.97    0.53
   1  -7  -2   17.18    0.53
   1  -7  -2   17.79    0.61
   1  -7  -2   17.25    0.57
  -1   7   2   17.26    0.61
  -1   7   2   17.76    0.55
  -1   7   2   15.11    0.55
  -1   7   2   17.85    0.45
  -1   7   2   17.18    0.51
  -1   7   2   17.51    0.51
  -1   7   2   17.60    0.45
  -1   7   2   16.99    0.53
   0  -7  -2    0.18    0.07
   0  -7  -2    0.18    0.09
   0  -7  -2    0.17    0.07
   0  -7  -2    0.21    0.09
   0  -7  -2    0.23    0.09
   0  -7  -2    0.37    0.12
   0  -7  -2    0.29    0.09
   0  -7  -2    0.46    0.06
   0  -7  -2    0.17    0.09
   0   7   2    0.04    0.05
   0   7   2    0.17    0.09
   0   7   2    0.12    0.09
   0   7   2    0.19    0.07
   0   7   2    0.07    0.06
   0   7   2    0.17    0.07
   0   7   2    0.14    0.08
   0   7   2    0.27    0.12
   0   7   2    0.29    0.09
  -1  -7  -2    8.17    0.37
  -1  -7  -2    9.44    0.41
  -1  -7  -2   10.37    0.26
  -1  -7  -2    9.75    0.37
  -1  -7  -2   10.01    0.38
  -1  -7  -2   10.34    0.41
  -1  -7  -2    9.89    0.36
  -1  -7  -2    9.79    0.30
   1   7   2   10.13    0.36
   1   7   2   10.10    0.30
   1   7   2    9.67    0.40
   1   7   2    9.53    0.34
   1   7   2   10.12    0.37
   1   7   2    9.66    0.33
   1   7   2   10.33    0.42
   1   7   2    9.91    0.29
  -2  -7  -2    9.45    0.35
  -2  -7  -2    9.00    0.34
  -2  -7  -2    9.07    0.29
  -2  -7  -2    8.88    0.24
  -2  -7  -2    8.77    0.35
   2   7   2    8.66    0.36
   2   7   2    8.73    0.29
   2   7   2    8.99    0.30
   2   7   2    8.98    0.34
   2   7   2    8.67    0.34
   2   7   2    8.88    0.25
  -3  -7  -2    1.05    0.16
  -3  -7  -2    1.12    0.15
  -3  -7  -2    0.91    0.09
   3   7   2    1.10    0.16
   3   7   2    0.89    0.15
   3   7   2    0.87    0.15
   3   7   2    1.09    0.10
  -4  -7  -2    0.48    0.09
  -4  -7  -2    0.58    0.16
  -4  -7  -2    0.33    0.16
   4   7   2    0.43    0.10
   4   7   2    0.35    0.16
   4   7   2    0.52    0.16
   4   7   2    0.69    0.17
   5  -8  -2    0.23    0.15
   5  -8  -2    0.23    0.16
  -5   8   2    0.14    0.17
  -5   8   2   -0.07    0.15
   4  -8  -2    1.99    0.12
   4  -8  -2    1.59    0.16
   4  -8  -2    2.22    0.20
   4  -8  -2    1.97    0.19
  -4   8   2    1.75    0.19
  -4   8   2    2.21    0.20
   3  -8  -2    4.81    0.21
   3  -8  -2    3.98    0.20
   3  -8  -2    4.64    0.25
   3  -8  -2    4.55    0.17
   3  -8  -2    4.16    0.23
  -3   8   2    4.79    0.20
  -3   8   2    4.66    0.20
  -3   8   2    4.62    0.25
  -3   8   2    4.23    0.23
   2  -8  -2    2.36    0.15
   2  -8  -2    2.04    0.14
   2  -8  -2    2.27    0.18
   2  -8  -2    2.10    0.18
   2  -8  -2    2.26    0.18
   2  -8  -2    2.14    0.17
   2  -8  -2    2.11    0.14
   2  -8  -2    2.11    0.12
   2  -8  -2    1.91    0.18
  -2   8   2    1.98    0.16
  -2   8   2    2.22    0.18
  -2   8   2    2.04    0.14
  -2   8   2    2.27    0.14
  -2   8   2    2.31    0.19
  -2   8   2    2.45    0.19
   1  -8  -2    5.57    0.21
   1  -8  -2    5.01    0.27
   1  -8  -2    5.25    0.17
   1  -8  -2    5.51    0.26
   1  -8  -2    5.53    0.19
   1  -8  -2    5.49    0.29
   1  -8  -2    5.53    0.29
   1  -8  -2    4.64    0.26
   1  -8  -2    6.09    0.29
  -1   8   2    5.86    0.29
  -1   8   2    5.32    0.20
  -1   8   2    5.42    0.25
  -1   8   2    4.84    0.27
  -1   8   2    5.47    0.21
  -1   8   2    5.50    0.25
  -1   8   2    4.73    0.26
  -1   8   2    3.80    0.25
  -1   8   2    5.50    0.26
   0  -8  -2    5.97    0.18
   0  -8  -2    5.87    0.26
   0  -8  -2    6.43    0.27
   0  -8  -2    5.99    0.28
   0  -8  -2    5.60    0.29
   0  -8  -2    5.98    0.21
   0  -8  -2    6.21    0.27
   0  -8  -2    5.80    0.29
   0   8   2    5.63    0.22
   0   8   2    6.42    0.28
   0   8   2    5.83    0.32
   0   8   2    5.90    0.24
   0   8   2    5.88    0.21
   0   8   2    4.96    0.27
   0   8   2    6.08    0.27
   0   8   2    6.16    0.27
   0   8   2    6.38    0.26
  -1  -8  -2    3.49    0.24
  -1  -8  -2    3.81    0.15
  -1  -8  -2    3.09    0.24
  -1  -8  -2    3.88    0.18
  -1  -8  -2    3.46    0.25
  -1  -8  -2    3.43    0.22
   1   8   2    3.69    0.17
   1   8   2    3.75    0.17
   1   8   2    3.76    0.24
   1   8   2    3.46    0.25
   1   8   2    3.74    0.24
   1   8   2    3.64    0.22
  -2  -8  -2    0.17    0.12
  -2  -8  -2    0.15    0.07
  -2  -8  -2    0.15    0.09
  -2  -8  -2    0.31    0.13
   2   8   2    0.35    0.10
   2   8   2    0.20    0.11
   2   8   2    0.16    0.12
  -3  -8  -2    1.33    0.11
  -3  -8  -2    1.44    0.19
  -3  -8  -2    1.22    0.17
   3   8   2    1.52    0.18
   3   8   2    1.44    0.18
   3   8   2    1.51    0.12
   4  -9  -2    0.83    0.16
   4  -9  -2    1.13    0.18
   4  -9  -2    0.77    0.10
  -4   9   2    1.11    0.17
  -4   9   2    0.67    0.16
   3  -9  -2    0.36    0.14
   3  -9  -2    0.54    0.14
   3  -9  -2    0.54    0.12
   3  -9  -2    0.51    0.11
   3  -9  -2    0.49    0.08
  -3   9   2    0.48    0.14
  -3   9   2    0.32    0.11
  -3   9   2    0.40    0.14
  -3   9   2    0.38    0.10
   2  -9  -2   -0.06    0.08
   2  -9  -2   -0.03    0.09
   2  -9  -2    0.05    0.09
   2  -9  -2    0.15    0.12
   2  -9  -2    0.13    0.07
   2  -9  -2    0.11    0.13
  -2   9   2    0.10    0.12
  -2   9   2    0.29    0.12
  -2   9   2    0.26    0.12
  -2   9   2    0.06    0.09
  -2   9   2    0.12    0.09
   1  -9  -2   87.50    1.96
   1  -9  -2   82.18    2.17
   1  -9  -2   82.27    2.21
   1  -9  -2   88.20    1.81
   1  -9  -2   86.20    2.30
   1  -9  -2   89.59    1.95
  -1   9   2   88.29    1.96
  -1   9   2   87.51    1.95
  -1   9   2   76.03    2.30
  -1   9   2   83.31    2.21
  -1   9   2   86.85    2.15
  -1   9   2   88.30    2.15
   0  -9  -2    0.19    0.10
   0  -9  -2   -0.02    0.08
   0  -9  -2    0.03    0.06
   0  -9  -2    0.08    0.10
   0  -9  -2   -0.07    0.10
   0   9   2    0.00    0.10
   0   9   2   -0.05    0.10
   0   9   2    0.08    0.08
   0   9   2    0.02    0.09
   0   9   2   -0.02    0.08
   0   9   2   -0.05    0.08
  -1  -9  -2    2.95    0.23
  -1  -9  -2    3.35    0.15
  -1  -9  -2    3.19    0.18
  -1  -9  -2    3.43    0.24
   1   9   2    2.97    0.22
   1   9   2    3.17    0.18
   1   9   2    3.26    0.22
  -2  -9  -2    4.10    0.17
  -2  -9  -2    3.89    0.28
  -2  -9  -2    4.03    0.27
   2   9   2    3.95    0.21
   2   9   2    3.89    0.25
   2   9   2    4.03    0.28
  -3  -9  -2    1.65    0.21
  -3  -9  -2    1.38    0.11
  -3  -9  -2    1.37    0.19
   3   9   2    1.39    0.19
   3   9   2    1.39    0.19
   4 -10  -2    0.43    0.10
   4 -10  -2    0.43    0.16
   4 -10  -2    0.20    0.17
  -4  10   2    0.08    0.16
  -4  10   2    0.04    0.15
   3 -10  -2    1.99    0.17
   3 -10  -2    1.99    0.13
   3 -10  -2    2.25    0.22
   3 -10  -2    2.31    0.21
  -3  10   2    2.02    0.21
  -3  10   2    1.80    0.19
   2 -10  -2   10.42    0.37
   2 -10  -2   10.51    0.42
   2 -10  -2    9.82    0.42
   2 -10  -2   11.13    0.36
   2 -10  -2   10.72    0.29
  -2  10   2   11.06    0.44
  -2  10   2   11.02    0.34
  -2  10   2   10.73    0.40
   1 -10  -2    0.70    0.11
   1 -10  -2    0.88    0.09
   1 -10  -2    1.10    0.16
   1 -10  -2    0.96    0.16
  -1  10   2    0.74    0.15
  -1  10   2    0.91    0.12
  -1  10   2    0.79    0.14
  -1  10   2    0.68    0.14
  -1  10   2    0.81    0.11
   0 -10  -2    1.59    0.11
   0 -10  -2    1.71    0.17
   0 -10  -2    1.95    0.14
   0 -10  -2    1.79    0.17
   0  10   2    1.71    0.18
   0  10   2    1.69    0.13
   0  10   2    1.35    0.16
  -1 -10  -2    3.73    0.24
  -1 -10  -2    3.91    0.26
  -1 -10  -2    3.65    0.16
   1  10   2    3.68    0.25
   1  10   2    3.63    0.19
   1  10   2    3.50    0.25
  -2 -10  -2    1.49    0.11
  -2 -10  -2    1.48    0.23
  -2 -10  -2    1.27    0.21
   2  10   2    1.51    0.21
   2  10   2    1.44    0.19
  -3 -10  -2    0.13    0.17
  -3 -10  -2    0.17    0.09
  -3 -10  -2    0.26    0.18
   3  10   2    0.05    0.16
   3  10   2    0.20    0.17
   4 -11  -2    1.81    0.24
   4 -11  -2    1.77    0.14
   4 -11  -2    1.95    0.24
  -4  11   2    1.85    0.23
  -4  11   2    1.63    0.22
   3 -11  -2    2.85    0.26
   3 -11  -2    2.64    0.24
   3 -11  -2    2.63    0.16
  -3  11   2    2.71    0.24
  -3  11   2    2.93    0.24
   2 -11  -2    2.18    0.22
   2 -11  -2    2.21    0.19
   2 -11  -2    1.61    0.21
   2 -11  -2    2.03    0.14
  -2  11   2    1.81    0.20
  -2  11   2    1.95    0.22
   1 -11  -2    4.53    0.29
   1 -11  -2    4.58    0.28
   1 -11  -2    4.33    0.17
  -1  11   2    4.73    0.27
  -1  11   2    3.76    0.26
  -1  11   2    4.18    0.21
  -1  11   2    4.31    0.26
   0 -11  -2    0.58    0.09
   0 -11  -2    0.61    0.15
   0 -11  -2    0.55    0.14
   0  11   2    0.82    0.15
   0  11   2    0.39    0.11
   0  11   2    0.64    0.15
  -1 -11  -2    0.83    0.16
  -1 -11  -2    0.68    0.16
  -1 -11  -2    0.74    0.09
   1  11   2    0.63    0.15
   1  11   2    0.82    0.16
  -2 -11  -2    0.23    0.17
  -2 -11  -2    0.09    0.09
  -2 -11  -2   -0.08    0.16
   2  11   2    0.07    0.15
   2  11   2    0.05    0.16
   3 -12  -2    1.15    0.23
   3 -12  -2    1.23    0.22
   3 -12  -2    1.22    0.12
  -3  12   2    0.99    0.19
  -3  12   2    1.01    0.20
   2 -12  -2    4.13    0.18
   2 -12  -2    3.92    0.29
   2 -12  -2    3.45    0.30
  -2  12   2    4.44    0.29
  -2  12   2    4.47    0.32
   1 -12  -2    6.23    0.22
   1 -12  -2    7.10    0.35
   1 -12  -2    6.06    0.31
  -1  12   2    6.22    0.32
  -1  12   2    6.31    0.32
  -1  12   2    5.94    0.32
   0 -12  -2    0.26    0.14
   0 -12  -2    0.33    0.14
   0 -12  -2    0.22    0.09
   0  12   2    0.24    0.14
   0  12   2    0.29    0.15
  -1 -12  -2    0.55    0.10
  -1 -12  -2    0.83    0.17
  -1 -12  -2    0.60    0.16
   1  12   2    0.60    0.16
   1  12   2    0.37    0.15
  -2 -12  -2    0.75    0.20
  -2 -12  -2    1.10    0.21
  -2 -12  -2    1.05    0.11
   2  12   2    0.82    0.19
   2  12   2    0.99    0.20
   2 -13  -2    1.96    0.24
   2 -13  -2    1.97    0.14
   2 -13  -2    1.66    0.24
  -2  13   2    2.05    0.23
  -2  13   2    1.84    0.25
   1 -13  -2    0.19    0.15
   1 -13  -2    0.29    0.10
   1 -13  -2    0.37    0.16
  -1  13   2   -0.06    0.15
  -1  13   2    0.27    0.15
  -1  13   2   -0.06    0.15
   0 -13  -2    0.73    0.16
   0 -13  -2    0.78    0.17
   0 -13  -2    0.86    0.11
   0  13   2    0.89    0.18
   0  13   2    0.95    0.17
  -1 -13  -2    0.53    0.17
  -1 -13  -2    0.77    0.18
  -1 -13  -2    0.60    0.11
   1  13   2    0.62    0.18
   1  13   2    0.55    0.17
   0  14  -3    1.81    0.20
   0 -14   3    1.72    0.14
   0 -14   3    2.05    0.21
  -1  14  -3    0.93    0.18
   1 -14   3    0.71    0.11
   1 -14   3    0.57    0.17
   1  13  -3    1.74    0.19
  -1 -13   3    1.74    0.20
  -1 -13   3    1.40    0.12
   0  13  -3    0.15    0.13
   0 -13   3   -0.05    0.08
   0 -13   3    0.17    0.14
  -1  13  -3    0.52    0.15
   1 -13   3    0.52    0.10
   1 -13   3    0.67    0.16
  -2  13  -3    0.67    0.16
   2 -13   3    0.91    0.12
   2 -13   3    0.96    0.19
   2  12  -3    0.42    0.15
  -2 -12   3    0.22    0.09
  -2 -12   3    0.49    0.19
   1  12  -3    0.03    0.12
   1  12  -3   -0.05    0.12
  -1 -12   3    0.01    0.08
  -1 -12   3   -0.05    0.12
   0  12  -3    0.71    0.14
   0  12  -3    1.25    0.17
   0  12  -3    0.83    0.14
   0  12  -3    0.78    0.14
   0 -12   3    0.81    0.12
   0 -12   3    0.79    0.14
   0 -12   3    0.81    0.15
   0 -12   3    1.01    0.10
  -1  12  -3    8.75    0.39
  -1  12  -3    8.32    0.36
  -1  12  -3    9.47    0.35
   1 -12   3    8.91    0.37
   1 -12   3    8.99    0.37
   1 -12   3    9.25    0.27
  -2  12  -3    0.60    0.15
  -2  12  -3    0.75    0.15
   2 -12   3    0.47    0.10
   2 -12   3    0.63    0.16
  -3  12  -3    2.59    0.22
   3 -12   3    2.64    0.24
   3 -12   3    2.64    0.18
   3  11  -3    0.21    0.16
  -3 -11   3   -0.15    0.16
   2  11  -3    0.39    0.15
   2  11  -3    0.23    0.13
  -2 -11   3    0.32    0.17
  -2 -11   3    0.20    0.09
   1  11  -3    3.56    0.27
   1  11  -3    3.04    0.23
   1  11  -3    3.53    0.22
   1  11  -3    3.12    0.21
  -1 -11   3    3.05    0.19
  -1 -11   3    3.31    0.15
  -1 -11   3    3.30    0.24
  -1 -11   3    3.54    0.23
   0  11  -3    9.47    0.33
   0  11  -3    8.73    0.41
   0  11  -3    9.17    0.26
   0  11  -3    8.97    0.30
   0  11  -3    9.35    0.33
   0  11  -3    9.13    0.35
   0  11  -3    9.19    0.38
   0 -11   3    9.16    0.26
   0 -11   3    9.35    0.35
   0 -11   3    8.97    0.30
   0 -11   3    8.65    0.34
  -1  11  -3    4.63    0.17
  -1  11  -3    4.46    0.23
  -1  11  -3    4.48    0.30
  -1  11  -3    4.69    0.24
  -1  11  -3    4.46    0.27
   1 -11   3    4.65    0.26
   1 -11   3    4.78    0.25
   1 -11   3    4.56    0.18
   1 -11   3    4.73    0.21
  -2  11  -3    6.06    0.31
  -2  11  -3    6.53    0.29
  -2  11  -3    6.13    0.29
   2 -11   3    6.08    0.25
   2 -11   3    5.87    0.29
   2 -11   3    6.50    0.30
   2 -11   3    6.35    0.22
  -3  11  -3    4.11    0.26
  -3  11  -3    4.60    0.26
   3 -11   3    4.04    0.20
   3 -11   3    4.27    0.27
   3  10  -3    0.11    0.14
   3  10  -3    0.22    0.14
  -3 -10   3    0.07    0.14
   2  10  -3    4.53    0.28
   2  10  -3    5.19    0.26
   2  10  -3    5.31    0.34
   2  10  -3    4.73    0.34
  -2 -10   3    5.05    0.24
  -2 -10   3    5.07    0.30
  -2 -10   3    5.08    0.30
   1  10  -3    4.50    0.16
   1  10  -3    4.76    0.30
   1  10  -3    4.49    0.27
   1  10  -3    4.37    0.21
   1  10  -3    4.45    0.22
   1  10  -3    4.27    0.27
   1  10  -3    4.27    0.23
  -1 -10   3    4.06    0.26
  -1 -10   3    4.35    0.23
  -1 -10   3    4.33    0.20
  -1 -10   3    4.41    0.17
   0  10  -3   -0.03    0.12
   0  10  -3    0.05    0.10
   0  10  -3    0.15    0.09
   0  10  -3    0.09    0.06
   0  10  -3    0.03    0.15
   0  10  -3    0.13    0.10
   0  10  -3    0.09    0.09
   0  10  -3    0.04    0.07
   0  10  -3    0.06    0.10
   0 -10   3    0.03    0.08
   0 -10   3    0.02    0.09
   0 -10   3    0.13    0.10
   0 -10   3    0.04    0.08
   0 -10   3    0.01    0.06
  -1  10  -3   10.79    0.43
  -1  10  -3   12.15    0.38
  -1  10  -3   11.62    0.32
  -1  10  -3   10.63    0.38
  -1  10  -3   11.14    0.43
  -1  10  -3   11.71    0.31
  -1  10  -3   12.10    0.54
  -1  10  -3   12.05    0.48
   1 -10   3   10.92    0.40
   1 -10   3   11.80    0.31
   1 -10   3   11.72    0.40
   1 -10   3   12.83    0.37
   1 -10   3   11.45    0.34
  -2  10  -3    0.75    0.09
  -2  10  -3    0.43    0.13
  -2  10  -3    0.65    0.13
  -2  10  -3    0.47    0.15
  -2  10  -3    0.81    0.13
   2 -10   3    0.83    0.10
   2 -10   3    0.62    0.10
   2 -10   3    0.40    0.13
   2 -10   3    0.68    0.14
   2 -10   3    0.72    0.13
  -3  10  -3    1.25    0.16
  -3  10  -3    1.12    0.16
   3 -10   3    1.26    0.13
   3 -10   3    1.56    0.17
   3 -10   3    1.24    0.16
  -4  10  -3    0.60    0.15
   4 -10   3    0.75    0.13
   4 -10   3    0.80    0.17
   4   9  -3    0.32    0.16
   4   9  -3    0.52    0.17
  -4  -9   3    0.34    0.15
   3   9  -3    3.01    0.23
   3   9  -3    2.43    0.21
  -3  -9   3    2.80    0.21
  -3  -9   3    2.92    0.21
   2   9  -3    1.63    0.17
   2   9  -3    2.23    0.24
   2   9  -3    2.04    0.12
   2   9  -3    1.67    0.16
   2   9  -3    1.78    0.19
  -2  -9   3    1.81    0.15
  -2  -9   3    1.83    0.18
  -2  -9   3    1.89    0.18
   1   9  -3   11.51    0.36
   1   9  -3   10.23    0.42
   1   9  -3   11.50    0.29
   1   9  -3   10.78    0.39
   1   9  -3   11.20    0.46
   1   9  -3   10.60    0.43
   1   9  -3   10.18    0.46
   1   9  -3   11.10    0.35
   1   9  -3   10.54    0.38
  -1  -9   3   10.74    0.41
  -1  -9   3   11.41    0.39
  -1  -9   3   11.26    0.39
  -1  -9   3   10.87    0.33
  -1  -9   3   11.07    0.35
  -1  -9   3   11.49    0.33
   0   9  -3    7.38    0.29
   0   9  -3    7.52    0.27
   0   9  -3    8.22    0.31
   0   9  -3    7.59    0.21
   0   9  -3    7.70    0.27
   0   9  -3    7.69    0.37
   0   9  -3    7.73    0.21
   0   9  -3    6.97    0.30
   0   9  -3    8.31    0.32
   0   9  -3    7.40    0.24
   0   9  -3    7.55    0.34
   0  -9   3    7.61    0.24
   0  -9   3    7.72    0.29
   0  -9   3    7.52    0.21
   0  -9   3    7.81    0.29
   0  -9   3    7.33    0.28
   0  -9   3    7.71    0.25
  -1   9  -3    7.41    0.22
  -1   9  -3    5.99    0.39
  -1   9  -3    7.82    0.27
  -1   9  -3    7.62    0.34
  -1   9  -3    7.67    0.21
  -1   9  -3    7.40    0.31
  -1   9  -3    7.72    0.22
  -1   9  -3    7.41    0.31
  -1   9  -3    7.49    0.33
  -1   9  -3    7.73    0.29
   1  -9   3    7.53    0.25
   1  -9   3    7.49    0.30
   1  -9   3    7.84    0.22
   1  -9   3    7.99    0.27
   1  -9   3    8.28    0.30
   1  -9   3    7.51    0.29
  -2   9  -3    0.09    0.10
  -2   9  -3   -0.06    0.09
  -2   9  -3   -0.06    0.17
  -2   9  -3    0.12    0.10
  -2   9  -3    0.02    0.12
  -2   9  -3    0.01    0.07
  -2   9  -3    0.14    0.11
   2  -9   3    0.10    0.09
   2  -9   3    0.01    0.10
   2  -9   3   -0.05    0.07
   2  -9   3    0.15    0.09
   2  -9   3    0.14    0.10
   2  -9   3    0.17    0.08
  -3   9  -3    0.85    0.15
  -3   9  -3    0.96    0.14
  -3   9  -3    0.91    0.14
   3  -9   3    0.84    0.14
   3  -9   3    1.11    0.14
   3  -9   3    0.82    0.11
   3  -9   3    0.83    0.12
   3  -9   3    0.83    0.14
  -4   9  -3    2.35    0.20
  -4   9  -3    2.29    0.21
   4  -9   3    2.21    0.21
   4  -9   3    2.47    0.16
   4   8  -3    1.73    0.19
   4   8  -3    1.12    0.18
   4   8  -3    1.71    0.20
  -4  -8   3    1.34    0.18
   3   8  -3    0.29    0.13
   3   8  -3    0.50    0.13
   3   8  -3    0.13    0.12
   3   8  -3    0.26    0.12
  -3  -8   3    0.37    0.11
  -3  -8   3    0.55    0.13
  -3  -8   3    0.26    0.12
   2   8  -3    0.45    0.11
   2   8  -3    0.67    0.12
   2   8  -3    0.75    0.16
   2   8  -3    0.66    0.14
   2   8  -3    0.67    0.08
   2   8  -3    0.66    0.12
   2   8  -3    0.78    0.14
  -2  -8   3    0.72    0.12
  -2  -8   3    0.61    0.10
  -2  -8   3    0.59    0.12
  -2  -8   3    0.65    0.10
   1   8  -3   22.06    0.62
   1   8  -3   20.58    0.61
   1   8  -3   17.47    0.64
   1   8  -3   22.13    0.50
   1   8  -3   21.12    0.57
   1   8  -3   21.95    0.50
   1   8  -3   18.99    0.67
   1   8  -3   22.05    0.59
   1   8  -3   21.15    0.72
   1   8  -3   21.39    0.72
  -1  -8   3   22.00    0.58
  -1  -8   3   21.06    0.63
  -1  -8   3   21.52    0.63
  -1  -8   3   20.81    0.63
  -1  -8   3   21.98    0.54
  -1  -8   3   21.88    0.54
   0   8  -3    9.18    0.29
   0   8  -3    8.78    0.27
   0   8  -3    8.47    0.36
   0   8  -3    9.36    0.31
   0   8  -3    9.64    0.34
   0   8  -3   10.16    0.34
   0   8  -3    8.98    0.29
   0   8  -3    9.28    0.24
   0   8  -3    9.15    0.39
   0   8  -3    9.07    0.34
   0   8  -3    9.03    0.24
   0  -8   3    8.87    0.23
   0  -8   3    9.86    0.32
   0  -8   3    8.96    0.27
   0  -8   3    8.67    0.27
   0  -8   3    9.09    0.31
   0  -8   3    8.88    0.31
  -1   8  -3    3.95    0.22
  -1   8  -3    3.64    0.17
  -1   8  -3    3.58    0.20
  -1   8  -3    4.00    0.13
  -1   8  -3    4.13    0.21
  -1   8  -3    3.97    0.14
  -1   8  -3    3.81    0.19
  -1   8  -3    4.34    0.21
  -1   8  -3    4.03    0.13
  -1   8  -3    3.60    0.29
   1  -8   3    4.25    0.20
   1  -8   3    3.74    0.18
   1  -8   3    4.09    0.19
   1  -8   3    3.99    0.16
   1  -8   3    3.75    0.18
   1  -8   3    3.86    0.14
  -2   8  -3    7.69    0.39
  -2   8  -3    7.51    0.23
  -2   8  -3    7.03    0.28
  -2   8  -3    8.14    0.22
  -2   8  -3    7.96    0.30
  -2   8  -3    7.92    0.27
  -2   8  -3    7.99    0.31
  -2   8  -3    7.80    0.31
  -2   8  -3    7.68    0.34
   2  -8   3    7.41    0.28
   2  -8   3    7.44    0.28
   2  -8   3    7.65    0.29
   2  -8   3    7.42    0.25
   2  -8   3    7.41    0.23
   2  -8   3    7.91    0.30
   2  -8   3    7.93    0.27
  -3   8  -3    5.40    0.28
  -3   8  -3    5.10    0.25
  -3   8  -3    5.44    0.25
  -3   8  -3    5.52    0.30
   3  -8   3    5.26    0.21
   3  -8   3    5.45    0.26
   3  -8   3    5.20    0.24
   3  -8   3    5.21    0.24
   3  -8   3    5.10    0.19
  -4   8  -3    0.90    0.15
  -4   8  -3    0.86    0.16
   4  -8   3    0.90    0.15
   4  -8   3    1.13    0.16
   4  -8   3    1.11    0.12
   4   7  -3    0.06    0.13
   4   7  -3    0.06    0.13
  -4  -7   3    0.06    0.12
  -4  -7   3    0.18    0.13
   3   7  -3    1.83    0.17
   3   7  -3    2.32    0.13
   3   7  -3    1.97    0.16
   3   7  -3    2.11    0.17
   3   7  -3    2.33    0.18
   3   7  -3    2.09    0.22
  -3  -7   3    1.97    0.16
  -3  -7   3    1.67    0.16
  -3  -7   3    2.07    0.16
   2   7  -3    8.56    0.30
   2   7  -3    7.67    0.31
   2   7  -3    9.03    0.24
   2   7  -3    8.60    0.30
   2   7  -3    8.27    0.24
   2   7  -3    7.99    0.36
   2   7  -3    8.39    0.30
   2   7  -3    8.83    0.36
   2   7  -3    8.76    0.31
   2   7  -3    8.56    0.33
  -2  -7   3    8.32    0.29
  -2  -7   3    8.45    0.26
  -2  -7   3    8.60    0.32
  -2  -7   3    8.57    0.31
  -2  -7   3    8.15    0.29
   1   7  -3    0.91    0.06
   1   7  -3    0.84    0.09
   1   7  -3    0.91    0.10
   1   7  -3    0.84    0.06
   1   7  -3    0.82    0.13
   1   7  -3    0.90    0.12
   1   7  -3    0.91    0.09
   1   7  -3    0.83    0.13
   1   7  -3    0.74    0.12
   1   7  -3    0.96    0.12
  -1  -7   3    1.05    0.11
  -1  -7   3    0.72    0.07
  -1  -7   3    0.73    0.11
  -1  -7   3    0.88    0.09
  -1  -7   3    0.61    0.11
  -1  -7   3    0.81    0.09
   0   7  -3    2.95    0.21
   0   7  -3    2.67    0.18
   0   7  -3    2.80    0.17
   0   7  -3    2.83    0.14
   0   7  -3    2.78    0.15
   0   7  -3    2.99    0.10
   0   7  -3    2.87    0.12
   0   7  -3    2.86    0.16
   0   7  -3    2.91    0.10
   0   7  -3    3.15    0.18
   0   7  -3    2.71    0.14
   0  -7   3    3.00    0.12
   0  -7   3    3.37    0.17
   0  -7   3    2.67    0.15
   0  -7   3    2.79    0.13
   0  -7   3    2.96    0.16
  -1   7  -3   27.69    0.85
  -1   7  -3   24.16    0.88
  -1   7  -3   27.49    0.62
  -1   7  -3   27.05    0.73
  -1   7  -3   28.63    0.62
  -1   7  -3   26.28    0.72
  -1   7  -3   26.81    0.76
  -1   7  -3   26.99    0.70
  -1   7  -3   26.41    0.65
  -1   7  -3   27.02    0.76
   1  -7   3   27.26    0.75
   1  -7   3   25.17    0.66
   1  -7   3   26.71    0.64
   1  -7   3   27.19    0.72
   1  -7   3   27.09    0.59
   1  -7   3   27.34    0.71
  -2   7  -3   22.21    0.53
  -2   7  -3   22.08    0.65
  -2   7  -3   22.47    0.52
  -2   7  -3   22.51    0.62
  -2   7  -3   22.01    0.60
  -2   7  -3   21.17    0.64
  -2   7  -3   21.52    0.73
  -2   7  -3   22.72    0.75
  -2   7  -3   21.60    0.61
   2  -7   3   21.64    0.51
   2  -7   3   21.53    0.55
   2  -7   3   22.34    0.61
   2  -7   3   21.92    0.56
   2  -7   3   21.35    0.60
   2  -7   3   22.80    0.64
   2  -7   3   21.62    0.59
  -3   7  -3    0.54    0.12
  -3   7  -3    0.49    0.12
  -3   7  -3    0.42    0.11
  -3   7  -3    0.33    0.08
  -3   7  -3    0.41    0.11
  -3   7  -3    0.55    0.15
   3  -7   3    0.47    0.12
   3  -7   3    0.53    0.10
   3  -7   3    0.50    0.10
   3  -7   3    0.39    0.08
   3  -7   3    0.42    0.11
  -4   7  -3    2.76    0.21
  -4   7  -3    2.61    0.21
   4  -7   3    3.21    0.23
   4  -7   3    2.57    0.16
   4  -7   3    2.68    0.21
   4   6  -3    0.35    0.12
   4   6  -3    0.36    0.14
  -4  -6   3    0.40    0.13
  -4  -6   3    0.36    0.13
   3   6  -3   31.13    1.04
   3   6  -3   33.13    0.86
   3   6  -3   32.56    0.88
   3   6  -3   32.43    0.93
   3   6  -3   32.92    0.76
   3   6  -3   31.56    0.92
  -3  -6   3   30.87    0.86
  -3  -6   3   32.26    0.88
  -3  -6   3   31.89    0.78
  -3  -6   3   32.07    0.86
   2   6  -3    0.59    0.09
   2   6  -3    0.39    0.09
   2   6  -3    0.57    0.06
   2   6  -3    0.62    0.10
   2   6  -3    0.49    0.11
   2   6  -3    0.57    0.09
   2   6  -3    0.57    0.09
   2   6  -3    0.54    0.12
   2   6  -3    0.55    0.06
   2   6  -3    0.47    0.09
   2   6  -3    0.55    0.10
  -2  -6   3    0.66    0.09
  -2  -6   3    0.43    0.07
  -2  -6   3    0.53    0.09
  -2  -6   3    0.76    0.10
  -2  -6   3    0.52    0.08
   1   6  -3   38.08    0.97
   1   6  -3   38.63    0.86
   1   6  -3   37.79    1.04
   1   6  -3   37.84    1.18
   1   6  -3   37.78    1.00
   1   6  -3   39.14    1.05
   1   6  -3   38.49    0.86
   1   6  -3   39.98    0.99
   1   6  -3   38.42    1.17
   1   6  -3   38.02    0.96
  -1  -6   3   38.42    1.02
  -1  -6   3   37.75    0.96
  -1  -6   3   37.92    0.88
  -1  -6   3   37.54    1.02
  -1  -6   3   37.93    0.89
  -1  -6   3   37.86    1.04
  -1  -6   3   37.55    0.97
  -1  -6   3   37.51    1.00
   0   6  -3   48.62    1.08
   0   6  -3   48.46    1.21
   0   6  -3   48.31    1.08
   0   6  -3   47.79    1.24
   0   6  -3   52.68    1.26
   0   6  -3   47.94    1.48
   0   6  -3   47.76    1.31
   0   6  -3   47.18    1.18
   0   6  -3   51.19    1.31
   0   6  -3   49.65    1.21
   0   6  -3   48.54    1.46
   0  -6   3   50.03    1.29
   0  -6   3   48.45    1.19
   0  -6   3   49.38    1.30
   0  -6   3   47.30    1.24
   0  -6   3   47.98    1.23
   0  -6   3   49.13    1.11
   0  -6   3   48.36    1.11
  -1   6  -3   16.98    0.56
  -1   6  -3   17.41    0.50
  -1   6  -3   17.17    0.46
  -1   6  -3   17.41    0.40
  -1   6  -3   17.66    0.48
  -1   6  -3   16.94    0.41
  -1   6  -3   16.91    0.47
  -1   6  -3   17.52    0.50
  -1   6  -3   17.27    0.40
  -1   6  -3   17.39    0.59
   1  -6   3   17.02    0.42
   1  -6   3   17.09    0.47
   1  -6   3   17.24    0.38
   1  -6   3   17.26    0.50
   1  -6   3   16.34    0.44
   1  -6   3   16.46    0.47
   1  -6   3   17.37    0.49
  -2   6  -3    0.02    0.06
  -2   6  -3   -0.02    0.07
  -2   6  -3   -0.11    0.05
  -2   6  -3    0.05    0.07
  -2   6  -3    0.01    0.05
  -2   6  -3    0.00    0.07
  -2   6  -3    0.05    0.11
  -2   6  -3   -0.05    0.09
  -2   6  -3    0.04    0.07
   2  -6   3   -0.03    0.06
   2  -6   3    0.05    0.06
   2  -6   3    0.04    0.06
   2  -6   3    0.06    0.07
   2  -6   3   -0.01    0.05
   2  -6   3   -0.01    0.06
   2  -6   3   -0.05    0.07
  -3   6  -3    6.07    0.31
  -3   6  -3    6.72    0.26
  -3   6  -3    6.81    0.27
  -3   6  -3    6.20    0.21
  -3   6  -3    6.48    0.27
  -3   6  -3    5.95    0.31
  -3   6  -3    6.62    0.28
   3  -6   3    6.64    0.23
   3  -6   3    6.41    0.20
   3  -6   3    6.48    0.23
   3  -6   3    5.92    0.25
   3  -6   3    6.06    0.24
   3  -6   3    6.65    0.26
  -4   6  -3    5.54    0.26
  -4   6  -3    4.88    0.25
   4  -6   3    4.70    0.25
   4  -6   3    4.90    0.19
   4  -6   3    4.91    0.25
  -5   6  -3    1.56    0.20
  -5   6  -3    1.09    0.18
   5  -6   3    1.00    0.13
   5  -6   3    0.97    0.18
   5   5  -3    0.94    0.18
   5   5  -3    0.66    0.17
  -5  -5   3    0.60    0.17
   4   5  -3    2.79    0.21
   4   5  -3    3.07    0.21
   4   5  -3    2.81    0.24
  -4  -5   3    2.28    0.18
  -4  -5   3    2.57    0.20
   3   5  -3    3.50    0.22
   3   5  -3    3.86    0.16
   3   5  -3    4.07    0.22
   3   5  -3    3.82    0.15
   3   5  -3    3.85    0.20
   3   5  -3    3.89    0.21
   3   5  -3    3.68    0.20
   3   5  -3    3.61    0.24
  -3  -5   3    4.10    0.20
  -3  -5   3    3.93    0.20
  -3  -5   3    3.55    0.17
  -3  -5   3    3.52    0.19
  -3  -5   3    4.04    0.21
   2   5  -3   32.88    0.90
   2   5  -3   32.62    1.02
   2   5  -3   32.84    1.02
   2   5  -3   32.04    0.84
   2   5  -3   33.70    0.75
   2   5  -3   31.73    0.90
   2   5  -3   33.59    0.86
   2   5  -3   33.08    0.84
   2   5  -3   33.03    0.86
   2   5  -3   32.65    0.75
  -2  -5   3   33.46    0.90
  -2  -5   3   31.23    0.84
  -2  -5   3   33.01    0.86
  -2  -5   3   32.02    0.77
  -2  -5   3   32.81    0.85
  -2  -5   3   32.88    0.89
   1   5  -3   28.22    0.88
   1   5  -3   28.75    0.87
   1   5  -3   29.28    0.74
   1   5  -3   29.40    0.78
   1   5  -3   27.55    0.72
   1   5  -3   27.33    0.72
   1   5  -3   27.26    0.74
   1   5  -3   28.49    0.64
   1   5  -3   27.79    0.77
   1   5  -3   27.87    0.64
  -1  -5   3   28.48    0.76
  -1  -5   3   28.14    0.66
  -1  -5   3   29.79    0.73
  -1  -5   3   28.25    0.66
  -1  -5   3   28.44    0.78
  -1  -5   3   28.48    0.76
  -1  -5   3   27.63    0.74
  -1  -5   3   27.84    0.72
  -1  -5   3   29.38    0.72
   0   5  -3   10.01    0.34
   0   5  -3   10.47    0.31
   0   5  -3    9.21    0.32
   0   5  -3    9.89    0.29
   0   5  -3   10.01    0.27
   0   5  -3    9.84    0.26
   0   5  -3    9.89    0.36
   0   5  -3    9.79    0.22
   0   5  -3   10.17    0.32
   0   5  -3   10.15    0.28
   0  -5   3   10.09    0.27
   0  -5   3    9.98    0.30
   0  -5   3   10.39    0.31
   0  -5   3   10.22    0.29
   0  -5   3    9.88    0.25
   0  -5   3    9.72    0.29
   0  -5   3    9.96    0.25
   0  -5   3    9.85    0.29
   0  -5   3    9.74    0.31
  -1   5  -3    0.55    0.07
  -1   5  -3    0.52    0.04
  -1   5  -3    0.46    0.07
  -1   5  -3    0.61    0.07
  -1   5  -3    0.61    0.07
  -1   5  -3    0.57    0.06
  -1   5  -3    0.50    0.04
  -1   5  -3    0.43    0.08
  -1   5  -3    0.31    0.09
   1  -5   3    0.58    0.06
   1  -5   3    0.48    0.05
   1  -5   3    0.69    0.07
   1  -5   3    0.53    0.07
   1  -5   3    0.52    0.06
   1  -5   3    0.55    0.04
   1  -5   3    0.60    0.07
   1  -5   3    0.55    0.07
   1  -5   3    0.64    0.06
  -2   5  -3   23.60    0.69
  -2   5  -3   25.32    0.66
  -2   5  -3   24.61    0.65
  -2   5  -3   25.45    0.79
  -2   5  -3   25.33    0.58
  -2   5  -3   24.12    0.66
  -2   5  -3   25.08    0.79
  -2   5  -3   24.92    0.70
  -2   5  -3   24.80    0.57
   2  -5   3   25.05    0.66
   2  -5   3   23.56    0.62
   2  -5   3   24.45    0.55
   2  -5   3   23.81    0.69
   2  -5   3   25.33    0.69
   2  -5   3   24.73    0.59
   2  -5   3   24.55    0.59
   2  -5   3   24.71    0.65
  -3   5  -3    7.84    0.30
  -3   5  -3    8.60    0.32
  -3   5  -3    8.54    0.25
  -3   5  -3    8.82    0.37
  -3   5  -3    8.19    0.31
  -3   5  -3    8.32    0.29
  -3   5  -3    8.24    0.23
  -3   5  -3    8.71    0.38
  -3   5  -3    8.08    0.24
   3  -5   3    8.22    0.26
   3  -5   3    8.15    0.28
   3  -5   3    7.64    0.29
   3  -5   3    8.47    0.30
   3  -5   3    8.51    0.31
   3  -5   3    8.18    0.24
   3  -5   3    8.02    0.26
  -4   5  -3    0.14    0.11
  -4   5  -3    0.24    0.12
  -4   5  -3    0.20    0.11
   4  -5   3    0.09    0.08
   4  -5   3    0.15    0.12
   4  -5   3    0.18    0.12
   4  -5   3    0.26    0.11
  -5   5  -3    2.40    0.22
  -5   5  -3    2.07    0.21
   5  -5   3    1.98    0.21
   5  -5   3    2.05    0.15
   5   4  -3    0.62    0.16
   5   4  -3    0.64    0.16
  -5  -4   3    0.61    0.16
  -5  -4   3    0.40    0.16
   4   4  -3    0.46    0.14
   4   4  -3    0.66    0.13
   4   4  -3    0.56    0.13
   4   4  -3    0.38    0.13
  -4  -4   3    0.33    0.11
  -4  -4   3    0.39    0.12
  -4  -4   3    0.45    0.13
   3   4  -3   33.75    0.93
   3   4  -3   31.80    1.04
   3   4  -3   33.34    0.77
   3   4  -3   32.50    1.04
   3   4  -3   32.75    0.77
   3   4  -3   31.17    0.88
   3   4  -3   33.93    0.93
   3   4  -3   32.27    0.86
   3   4  -3   32.76    0.87
   3   4  -3   34.75    0.89
   3   4  -3   33.41    0.93
  -3  -4   3   31.73    0.86
  -3  -4   3   33.60    0.79
  -3  -4   3   31.15    0.86
  -3  -4   3   31.81    0.91
  -3  -4   3   33.16    0.88
   2   4  -3   15.38    0.44
   2   4  -3   15.64    0.47
   2   4  -3   15.56    0.46
   2   4  -3   16.09    0.43
   2   4  -3   15.73    0.53
   2   4  -3   16.45    0.53
   2   4  -3   16.25    0.45
   2   4  -3   16.08    0.45
   2   4  -3   15.73    0.38
   2   4  -3   16.04    0.38
  -2  -4   3   16.46    0.47
  -2  -4   3   15.62    0.44
  -2  -4   3   15.52    0.44
  -2  -4   3   15.99    0.39
  -2  -4   3   15.06    0.44
  -2  -4   3   15.44    0.46
   1   4  -3   12.58    0.35
   1   4  -3   13.19    0.29
   1   4  -3   12.88    0.43
   1   4  -3   12.85    0.35
   1   4  -3   13.04    0.36
   1   4  -3   12.87    0.37
   1   4  -3   13.55    0.42
   1   4  -3   12.87    0.36
   1   4  -3   12.53    0.35
   1   4  -3   12.70    0.29
   1   4  -3   13.34    0.38
  -1  -4   3   12.36    0.32
  -1  -4   3   12.23    0.35
  -1  -4   3   12.80    0.36
  -1  -4   3   13.21    0.31
  -1  -4   3   12.46    0.37
  -1  -4   3   13.43    0.35
  -1  -4   3   12.60    0.35
  -1  -4   3   12.81    0.35
  -1  -4   3   13.20    0.35
   0   4  -3    3.48    0.14
   0   4  -3    3.63    0.12
   0   4  -3    3.46    0.15
   0   4  -3    3.49    0.13
   0   4  -3    3.60    0.15
   0   4  -3    3.94    0.15
   0   4  -3    3.34    0.16
   0   4  -3    3.60    0.11
   0  -4   3    3.60    0.13
   0  -4   3    3.57    0.13
   0  -4   3    3.60    0.14
   0  -4   3    3.81    0.13
   0  -4   3    3.67    0.15
   0  -4   3    3.52    0.11
   0  -4   3    3.56    0.11
   0  -4   3    3.45    0.10
   0  -4   3    3.25    0.14
  -1   4  -3   44.81    0.96
  -1   4  -3   45.30    1.10
  -1   4  -3   43.33    1.14
  -1   4  -3   42.70    1.07
  -1   4  -3   43.29    1.30
  -1   4  -3   43.46    0.97
  -1   4  -3   42.82    1.15
  -1   4  -3   43.51    1.29
  -1   4  -3   44.39    1.10
   1  -4   3   43.18    1.09
   1  -4   3   43.43    0.91
   1  -4   3   43.57    1.09
   1  -4   3   43.89    1.07
   1  -4   3   44.32    1.14
   1  -4   3   41.79    1.03
   1  -4   3   44.34    0.99
   1  -4   3   43.45    1.14
   1  -4   3   42.85    1.07
   1  -4   3   44.04    0.98
  -2   4  -3   27.37    0.61
  -2   4  -3   26.93    0.61
  -2   4  -3   25.59    0.68
  -2   4  -3   27.21    0.74
  -2   4  -3   26.18    0.70
  -2   4  -3   25.93    0.83
  -2   4  -3   26.53    0.84
  -2   4  -3   26.92    0.70
  -2   4  -3   26.42    0.74
   2  -4   3   25.38    0.66
   2  -4   3   26.62    0.73
   2  -4   3   27.31    0.63
   2  -4   3   26.51    0.70
   2  -4   3   25.80    0.63
   2  -4   3   25.99    0.69
   2  -4   3   26.25    0.58
   2  -4   3   26.48    0.73
  -3   4  -3    1.16    0.09
  -3   4  -3    0.92    0.08
  -3   4  -3    1.04    0.12
  -3   4  -3    0.98    0.09
  -3   4  -3    1.05    0.15
  -3   4  -3    1.05    0.11
  -3   4  -3    1.13    0.12
  -3   4  -3    0.93    0.12
  -3   4  -3    0.88    0.14
   3  -4   3    1.00    0.12
   3  -4   3    0.93    0.11
   3  -4   3    0.93    0.10
   3  -4   3    0.99    0.08
   3  -4   3    1.09    0.11
   3  -4   3    0.95    0.11
   3  -4   3    1.11    0.09
  -4   4  -3    4.89    0.27
  -4   4  -3    4.98    0.25
  -4   4  -3    4.92    0.24
   4  -4   3    4.89    0.19
   4  -4   3    4.86    0.24
   4  -4   3    4.92    0.24
   4  -4   3    4.81    0.24
  -5   4  -3    5.21    0.29
  -5   4  -3    4.97    0.28
   5  -4   3    5.42    0.30
   5  -4   3    5.11    0.28
   5  -4   3    5.18    0.22
   5   3  -3   -0.06    0.14
   5   3  -3   -0.08    0.13
  -5  -3   3    0.04    0.13
  -5  -3   3    0.01    0.14
   4   3  -3    8.80    0.33
   4   3  -3    8.81    0.40
   4   3  -3    8.86    0.34
   4   3  -3    9.71    0.37
  -4  -3   3    8.27    0.32
  -4  -3   3    8.35    0.33
  -4  -3   3    8.99    0.32
   3   3  -3   17.07    0.52
   3   3  -3   16.82    0.42
   3   3  -3   17.10    0.59
   3   3  -3   16.41    0.49
   3   3  -3   16.79    0.48
   3   3  -3   16.78    0.52
   3   3  -3   17.97    0.49
   3   3  -3   16.18    0.48
  -3  -3   3   16.86    0.51
  -3  -3   3   16.71    0.51
  -3  -3   3   16.67    0.43
  -3  -3   3   16.90    0.49
  -3  -3   3   16.22    0.48
  -3  -3   3   16.07    0.47
   2   3  -3    0.40    0.07
   2   3  -3    0.42    0.05
   2   3  -3    0.45    0.08
   2   3  -3    0.43    0.06
   2   3  -3    0.33    0.07
   2   3  -3    0.44    0.06
   2   3  -3    0.43    0.05
   2   3  -3    0.34    0.07
   2   3  -3    0.51    0.07
  -2  -3   3    0.47    0.06
  -2  -3   3    0.34    0.06
  -2  -3   3    0.33    0.07
  -2  -3   3    0.29    0.06
  -2  -3   3    0.45    0.06
  -2  -3   3    0.42    0.07
   1   3  -3   48.70    1.21
   1   3  -3   49.18    1.46
   1   3  -3   49.25    1.47
   1   3  -3   50.99    1.24
   1   3  -3   49.72    1.22
   1   3  -3   48.61    1.24
   1   3  -3   49.60    1.29
   1   3  -3   49.52    1.29
  -1  -3   3   50.98    1.29
  -1  -3   3   51.02    1.29
  -1  -3   3   49.95    1.11
  -1  -3   3   49.58    1.24
  -1  -3   3   50.01    1.24
  -1  -3   3   50.41    1.21
  -1  -3   3   50.39    1.21
  -1  -3   3   50.17    1.11
  -1  -3   3   49.70    1.21
   0   3  -3   88.09    2.16
   0   3  -3   89.96    2.17
   0   3  -3   86.99    2.26
   0   3  -3   88.04    2.10
   0   3  -3   88.87    2.11
   0   3  -3   89.19    2.25
   0   3  -3   79.02    2.11
   0   3  -3   88.41    2.55
   0   3  -3   87.63    2.55
   0  -3   3   88.38    2.16
   0  -3   3   88.48    2.25
   0  -3   3   90.12    2.17
   0  -3   3   90.41    1.93
   0  -3   3   82.23    2.12
   0  -3   3   88.31    2.24
   0  -3   3   91.48    1.93
   0  -3   3   92.05    2.10
   0  -3   3   89.46    2.12
  -1   3  -3   24.15    0.53
  -1   3  -3   23.31    0.64
  -1   3  -3   23.51    0.61
  -1   3  -3   25.62    0.73
  -1   3  -3   24.18    0.53
  -1   3  -3   24.27    0.61
  -1   3  -3   23.92    0.64
  -1   3  -3   23.29    0.60
  -1   3  -3   24.10    0.72
   1  -3   3   24.09    0.50
   1  -3   3   23.26    0.61
   1  -3   3   23.93    0.63
   1  -3   3   23.39    0.58
   1  -3   3   23.17    0.54
   1  -3   3   23.68    0.60
   1  -3   3   23.79    0.55
   1  -3   3   22.94    0.61
   1  -3   3   23.91    0.60
   1  -3   3   23.72    0.64
  -2   3  -3    0.06    0.06
  -2   3  -3    0.01    0.06
  -2   3  -3    0.03    0.04
  -2   3  -3    0.00    0.06
  -2   3  -3    0.09    0.06
  -2   3  -3   -0.03    0.08
  -2   3  -3    0.10    0.06
  -2   3  -3    0.00    0.04
  -2   3  -3    0.08    0.04
  -2   3  -3    0.06    0.06
  -2   3  -3    0.00    0.07
   2  -3   3   -0.02    0.05
   2  -3   3    0.04    0.06
   2  -3   3    0.04    0.05
   2  -3   3    0.02    0.06
   2  -3   3    0.02    0.05
   2  -3   3    0.04    0.03
   2  -3   3    0.08    0.06
   2  -3   3   -0.02    0.04
   2  -3   3    0.04    0.05
  -3   3  -3    3.68    0.14
  -3   3  -3    3.59    0.19
  -3   3  -3    3.32    0.18
  -3   3  -3    3.61    0.15
  -3   3  -3    3.72    0.14
  -3   3  -3    3.42    0.20
  -3   3  -3    3.59    0.20
  -3   3  -3    3.67    0.24
  -3   3  -3    3.57    0.18
  -3   3  -3    3.59    0.24
   3  -3   3    3.65    0.19
   3  -3   3    3.97    0.19
   3  -3   3    3.77    0.18
   3  -3   3    3.91    0.19
   3  -3   3    3.82    0.14
   3  -3   3    3.86    0.14
   3  -3   3    3.54    0.16
  -4   3  -3   10.19    0.40
  -4   3  -3   10.64    0.33
  -4   3  -3    9.75    0.38
  -4   3  -3   11.04    0.37
   4  -3   3   10.33    0.32
   4  -3   3   10.30    0.38
   4  -3   3   10.26    0.37
   4  -3   3   11.25    0.36
   4  -3   3   10.23    0.33
   4  -3   3   10.75    0.30
  -5   3  -3    0.33    0.14
  -5   3  -3    0.31    0.14
   5  -3   3    0.29    0.15
   5  -3   3    0.33    0.15
   5  -3   3    0.33    0.11
   5   2  -3    1.01    0.16
   5   2  -3    0.96    0.16
  -5  -2   3    0.64    0.15
  -5  -2   3    0.91    0.16
   4   2  -3    5.63    0.28
   4   2  -3    5.83    0.33
   4   2  -3    6.35    0.27
   4   2  -3    5.73    0.26
  -4  -2   3    6.07    0.25
  -4  -2   3    6.00    0.25
  -4  -2   3    6.21    0.27
   3   2  -3    1.51    0.12
   3   2  -3    1.30    0.14
   3   2  -3    1.31    0.12
   3   2  -3    1.38    0.10
   3   2  -3    1.32    0.11
   3   2  -3    1.30    0.11
   3   2  -3    1.34    0.11
   3   2  -3    1.29    0.12
  -3  -2   3    1.25    0.11
  -3  -2   3    1.46    0.11
  -3  -2   3    1.43    0.11
  -3  -2   3    1.20    0.11
  -3  -2   3    1.31    0.11
  -3  -2   3    1.25    0.09
  -3  -2   3    1.58    0.13
   2   2  -3   40.96    1.22
   2   2  -3   41.19    1.07
   2   2  -3   41.07    0.91
   2   2  -3   40.72    1.01
   2   2  -3   33.85    1.21
   2   2  -3   41.90    1.01
   2   2  -3   40.53    1.08
   2   2  -3   41.41    1.03
   2   2  -3   41.61    1.03
  -2  -2   3   40.24    1.07
  -2  -2   3   41.68    0.92
  -2  -2   3   40.70    1.01
  -2  -2   3   40.16    1.07
  -2  -2   3   40.62    1.01
  -2  -2   3   39.88    1.03
   1   2  -3   35.05    1.08
   1   2  -3   37.16    1.08
   1   2  -3   37.34    0.95
   1   2  -3   36.50    0.90
   1   2  -3   36.53    0.95
   1   2  -3   37.50    1.08
   1   2  -3   35.32    0.89
   1   2  -3   36.92    0.89
   1   2  -3   36.80    0.91
  -1  -2   3   35.87    0.95
  -1  -2   3   37.18    0.91
  -1  -2   3   37.56    0.81
  -1  -2   3   36.59    0.90
  -1  -2   3   37.06    0.82
  -1  -2   3   37.10    0.91
  -1  -2   3   35.99    0.95
  -1  -2   3   37.63    0.90
  -1  -2   3   35.86    0.89
   0   2  -3   18.80    0.49
   0   2  -3   19.62    0.50
   0   2  -3   19.42    0.48
   0   2  -3   19.08    0.50
   0  -2   3   19.81    0.48
   0  -2   3   19.56    0.48
   0  -2   3   19.16    0.50
   0  -2   3   19.32    0.47
   0  -2   3   19.15    0.49
   0  -2   3   18.99    0.47
   0  -2   3   19.06    0.48
  -1   2  -3    6.15    0.21
  -1   2  -3    6.08    0.18
  -1   2  -3    6.37    0.14
  -1   2  -3    5.96    0.17
  -1   2  -3    5.91    0.14
  -1   2  -3    5.67    0.22
  -1   2  -3    6.05    0.18
  -1   2  -3    5.72    0.19
  -1   2  -3    6.25    0.19
  -1   2  -3    6.01    0.18
   1  -2   3    6.02    0.16
   1  -2   3    5.70    0.17
   1  -2   3    5.83    0.18
   1  -2   3    5.99    0.16
   1  -2   3    5.88    0.19
   1  -2   3    6.04    0.18
   1  -2   3    5.93    0.18
   1  -2   3    5.74    0.13
   1  -2   3    6.05    0.18
   1  -2   3    5.99    0.16
   1  -2   3    6.14    0.17
  -2   2  -3   61.55    1.36
  -2   2  -3   59.83    1.60
  -2   2  -3   59.60    1.47
  -2   2  -3   61.00    1.36
  -2   2  -3   60.65    1.53
  -2   2  -3   61.99    1.53
  -2   2  -3   61.62    1.42
  -2   2  -3   59.51    1.80
  -2   2  -3   61.42    1.59
  -2   2  -3   59.31    1.80
  -2   2  -3   59.22    1.49
   2  -2   3   59.83    1.50
   2  -2   3   61.30    1.59
   2  -2   3   61.07    1.53
   2  -2   3   60.30    1.37
   2  -2   3   61.72    1.59
   2  -2   3   61.74    1.42
   2  -2   3   61.72    1.46
   2  -2   3   61.15    1.28
  -3   2  -3   37.06    0.94
  -3   2  -3   38.08    0.88
  -3   2  -3   37.85    1.18
  -3   2  -3   37.62    1.04
  -3   2  -3   38.24    1.18
  -3   2  -3   38.36    0.93
  -3   2  -3   38.06    0.88
  -3   2  -3   37.24    0.78
  -3   2  -3   37.66    0.97
  -3   2  -3   37.86    1.00
  -3   2  -3   36.46    1.04
   3  -2   3   38.59    0.94
   3  -2   3   38.20    1.04
   3  -2   3   36.05    0.97
   3  -2   3   36.72    0.89
   3  -2   3   38.18    0.82
   3  -2   3   38.10    1.04
   3  -2   3   37.79    0.99
   3  -2   3   36.81    0.93
  -4   2  -3   19.72    0.61
  -4   2  -3   20.77    0.57
  -4   2  -3   20.73    0.60
  -4   2  -3   20.58    0.65
   4  -2   3   21.09    0.49
   4  -2   3   19.77    0.61
   4  -2   3   20.75    0.56
   4  -2   3   20.54    0.61
   4  -2   3   20.12    0.55
  -5   2  -3    0.14    0.14
  -5   2  -3    0.16    0.14
   5  -2   3    0.07    0.10
   5  -2   3    0.18    0.14
   5  -2   3    0.08    0.13
   5   1  -3    1.23    0.17
   5   1  -3    1.68    0.18
  -5  -1   3    1.40    0.17
  -5  -1   3    1.11    0.16
   4   1  -3   12.89    0.53
   4   1  -3   13.70    0.46
   4   1  -3   14.26    0.43
   4   1  -3   13.28    0.43
   4   1  -3   13.38    0.37
  -4  -1   3   13.00    0.38
  -4  -1   3   13.59    0.43
  -4  -1   3   12.99    0.42
  -4  -1   3   13.45    0.43
   3   1  -3   13.26    0.39
   3   1  -3   12.25    0.40
   3   1  -3   12.72    0.33
   3   1  -3   12.08    0.40
   3   1  -3   12.71    0.39
   3   1  -3   12.54    0.48
   3   1  -3   12.50    0.37
   3   1  -3   11.91    0.46
   3   1  -3   12.70    0.38
   3   1  -3   12.83    0.27
  -3  -1   3   12.62    0.40
  -3  -1   3   12.22    0.36
  -3  -1   3   12.65    0.37
  -3  -1   3   13.09    0.39
  -3  -1   3   12.31    0.37
  -3  -1   3   13.34    0.34
  -3  -1   3   12.96    0.40
   2   1  -3    9.69    0.28
   2   1  -3    9.50    0.27
   2   1  -3    9.32    0.29
   2   1  -3    9.98    0.28
   2   1  -3    9.73    0.24
   2   1  -3    9.34    0.33
   2   1  -3    9.48    0.29
   2   1  -3    9.47    0.33
   2   1  -3    9.68    0.28
  -2  -1   3    9.48    0.29
  -2  -1   3    9.57    0.25
  -2  -1   3    9.78    0.28
  -2  -1   3    9.69    0.29
  -2  -1   3    9.36    0.28
  -2  -1   3    9.93    0.28
  -2  -1   3    9.66    0.28
  -2  -1   3    9.72    0.22
  -2  -1   3    9.70    0.32
   1   1  -3    3.46    0.11
   1   1  -3    3.52    0.12
   1   1  -3    3.51    0.13
   1   1  -3    3.34    0.13
   1   1  -3    3.62    0.12
   1   1  -3    3.53    0.11
   1   1  -3    3.57    0.10
   1   1  -3    3.64    0.12
  -1  -1   3    3.36    0.11
  -1  -1   3    3.36    0.11
  -1  -1   3    3.53    0.11
  -1  -1   3    3.46    0.11
  -1  -1   3    3.50    0.09
  -1  -1   3    3.36    0.11
  -1  -1   3    3.44    0.11
  -1  -1   3    3.57    0.11
  -1  -1   3    3.68    0.12
   0   1  -3   58.59    1.46
   0   1  -3   57.99    1.46
   0   1  -3   58.16    1.40
   0   1  -3   57.57    1.40
   0  -1   3   57.14    1.40
   0  -1   3   55.43    1.37
   0  -1   3   57.58    1.37
   0  -1   3   57.82    1.40
  -1   1  -3  122.22    3.02
  -1   1  -3  125.81    3.22
  -1   1  -3  124.38    2.87
  -1   1  -3  127.53    3.09
  -1   1  -3  126.80    2.76
  -1   1  -3  125.95    3.09
  -1   1  -3  127.41    3.22
  -1   1  -3  125.31    3.65
  -1   1  -3  127.66    2.76
   1  -1   3  127.21    3.09
   1  -1   3  122.43    3.03
   1  -1   3  127.91    2.87
   1  -1   3  129.56    3.64
   1  -1   3  123.97    2.77
   1  -1   3  129.57    3.03
   1  -1   3  124.77    3.22
   1  -1   3  128.68    2.77
   1  -1   3  124.69    2.60
   1  -1   3  124.66    3.08
   1  -1   3  125.77    3.00
   1  -1   3  126.20    3.22
  -2   1  -3   21.66    0.51
  -2   1  -3   21.85    0.68
  -2   1  -3   21.64    0.61
  -2   1  -3   21.19    0.68
  -2   1  -3   21.62    0.58
  -2   1  -3   20.92    0.56
  -2   1  -3   21.20    0.50
  -2   1  -3   20.73    0.55
  -2   1  -3   21.24    0.54
  -2   1  -3   21.78    0.58
  -2   1  -3   22.28    0.69
  -2   1  -3   21.53    0.60
   2  -1   3   21.27    0.57
   2  -1   3   21.71    0.68
   2  -1   3   21.45    0.55
   2  -1   3   21.45    0.47
   2  -1   3   21.42    0.60
   2  -1   3   21.69    0.60
   2  -1   3   22.00    0.58
   2  -1   3   21.36    0.54
   2  -1   3   21.10    0.51
  -3   1  -3    0.46    0.09
  -3   1  -3    0.43    0.09
  -3   1  -3    0.46    0.04
  -3   1  -3    0.49    0.07
  -3   1  -3    0.62    0.08
  -3   1  -3    0.50    0.07
  -3   1  -3    0.51    0.11
  -3   1  -3    0.43    0.09
  -3   1  -3    0.49    0.12
  -3   1  -3    0.45    0.10
  -3   1  -3    0.50    0.10
   3  -1   3    0.50    0.10
   3  -1   3    0.54    0.09
   3  -1   3    0.48    0.07
   3  -1   3    0.43    0.09
   3  -1   3    0.39    0.09
   3  -1   3    0.46    0.09
   3  -1   3    0.62    0.08
   3  -1   3    0.40    0.08
  -4   1  -3   11.90    0.37
  -4   1  -3   12.02    0.44
  -4   1  -3   11.10    0.40
  -4   1  -3   11.50    0.40
   4  -1   3   12.10    0.41
   4  -1   3   11.99    0.37
   4  -1   3   11.66    0.32
   4  -1   3   11.00    0.40
  -5   1  -3    0.88    0.17
  -5   1  -3    0.61    0.16
   5  -1   3    0.92    0.17
   5  -1   3    0.48    0.16
   5  -1   3    0.55    0.11
   5   0  -3    1.30    0.17
   5   0  -3    1.80    0.18
  -5   0   3    1.40    0.17
  -5   0   3    1.49    0.18
   4   0  -3   10.55    0.30
   4   0  -3   10.40    0.44
   4   0  -3   10.83    0.36
   4   0  -3   10.82    0.24
   4   0  -3   10.01    0.35
   4   0  -3   10.15    0.38
  -4   0   3   10.28    0.31
  -4   0   3    9.98    0.36
  -4   0   3   10.35    0.36
  -4   0   3   10.24    0.32
  -4   0   3   10.46    0.34
   3   0  -3    8.01    0.26
   3   0  -3    7.80    0.28
   3   0  -3    8.43    0.33
   3   0  -3    7.41    0.27
   3   0  -3    7.84    0.28
   3   0  -3    7.72    0.18
   3   0  -3    7.66    0.31
   3   0  -3    8.21    0.27
   3   0  -3    7.67    0.23
   3   0  -3    8.21    0.27
   3   0  -3    8.46    0.34
  -3   0   3    7.61    0.27
  -3   0   3    7.82    0.26
  -3   0   3    7.60    0.31
  -3   0   3    7.68    0.23
  -3   0   3    7.86    0.25
  -3   0   3    7.75    0.27
  -3   0   3    7.86    0.27
  -3   0   3    7.95    0.26
   2   0  -3    0.55    0.07
   2   0  -3    0.58    0.07
   2   0  -3    0.51    0.06
   2   0  -3    0.57    0.06
   2   0  -3    0.52    0.08
   2   0  -3    0.56    0.08
   2   0  -3    0.54    0.05
   2   0  -3    0.66    0.07
   2   0  -3    0.44    0.06
  -2   0   3    0.68    0.07
  -2   0   3    0.51    0.06
  -2   0   3    0.61    0.07
  -2   0   3    0.55    0.06
  -2   0   3    0.58    0.06
  -2   0   3    0.52    0.06
  -2   0   3    0.46    0.06
  -2   0   3    0.52    0.06
  -2   0   3    0.53    0.05
   1   0  -3   94.43    2.41
   1   0  -3   95.95    2.41
   1   0  -3   93.35    2.73
   1   0  -3   93.16    2.31
   1   0  -3   95.08    2.26
   1   0  -3   94.50    2.26
   1   0  -3   95.85    2.26
   1   0  -3   98.02    2.73
   1   0  -3   91.30    2.31
  -1   0   3   94.14    2.27
  -1   0   3   94.58    2.41
  -1   0   3   93.55    2.41
  -1   0   3   91.76    2.72
  -1   0   3   93.79    2.31
  -1   0   3   94.52    2.07
  -1   0   3   96.70    2.27
  -1   0   3   94.81    2.31
  -1   0   3   94.55    2.72
   0   0  -3   58.48    1.65
   0   0  -3   57.68    1.40
   0   0  -3   57.37    1.46
   0   0  -3   57.43    1.37
   0   0  -3   58.04    1.65
   0   0  -3   55.46    1.41
   0   0  -3   58.50    1.47
   0   0   3   57.86    1.46
   0   0   3   57.82    1.41
   0   0   3   57.03    1.40
   0   0   3   54.51    1.38
   0   0   3   58.69    1.46
   0   0   3   57.17    1.30
   0   0   3   56.54    1.38
  -1   0  -3    1.27    0.07
  -1   0  -3    1.17    0.09
  -1   0  -3    1.33    0.08
  -1   0  -3    1.26    0.08
  -1   0  -3    1.22    0.10
  -1   0  -3    1.36    0.06
  -1   0  -3    1.24    0.09
  -1   0  -3    1.30    0.07
  -1   0  -3    1.34    0.06
  -1   0  -3    1.14    0.08
   1   0   3    1.22    0.07
   1   0   3    1.56    0.08
   1   0   3    1.22    0.07
   1   0   3    1.34    0.07
   1   0   3    1.32    0.08
   1   0   3    1.74    0.08
   1   0   3    1.36    0.07
   1   0   3    1.26    0.08
   1   0   3    1.31    0.08
   1   0   3    1.22    0.05
  -2   0  -3    1.11    0.09
  -2   0  -3    1.04    0.10
  -2   0  -3    1.26    0.09
  -2   0  -3    1.05    0.04
  -2   0  -3    1.15    0.08
  -2   0  -3    1.05    0.09
  -2   0  -3    1.03    0.11
  -2   0  -3    1.27    0.09
  -2   0  -3    1.06    0.04
  -2   0  -3    1.38    0.11
  -2   0  -3    1.15    0.08
  -2   0  -3    1.04    0.09
   2   0   3    1.11    0.11
   2   0   3    0.97    0.09
   2   0   3    1.18    0.09
   2   0   3    1.18    0.08
   2   0   3    1.03    0.08
   2   0   3    1.13    0.08
   2   0   3    1.19    0.10
   2   0   3    0.90    0.08
  -3   0  -3    8.12    0.28
  -3   0  -3    8.89    0.36
  -3   0  -3    8.35    0.31
  -3   0  -3    8.50    0.25
  -3   0  -3    8.35    0.28
  -3   0  -3    8.04    0.35
  -3   0  -3    8.24    0.20
  -3   0  -3    7.81    0.31
  -3   0  -3    8.16    0.27
  -3   0  -3    8.56    0.30
  -3   0  -3    8.11    0.25
   3   0   3    7.82    0.23
   3   0   3    8.86    0.27
   3   0   3    8.15    0.29
   3   0   3    8.38    0.26
   3   0   3    8.44    0.29
   3   0   3    8.76    0.31
   3   0   3    8.55    0.31
  -4   0  -3    0.50    0.13
  -4   0  -3    0.40    0.11
  -4   0  -3    0.41    0.13
   4   0   3    0.46    0.13
   4   0   3    0.38    0.09
   4   0   3    0.50    0.12
  -5   0  -3    0.67    0.16
  -5   0  -3    0.81    0.17
   5   0   3    0.38    0.15
   5   0   3    1.00    0.12
   5   0   3    0.86    0.17
   5  -1  -3    0.59    0.14
   5  -1  -3    0.65    0.15
  -5   1   3    0.83    0.15
  -5   1   3    0.72    0.15
   4  -1  -3    2.15    0.17
   4  -1  -3    2.07    0.13
   4  -1  -3    2.05    0.16
   4  -1  -3    2.09    0.20
   4  -1  -3    2.02    0.16
   4  -1  -3    2.06    0.09
  -4   1   3    1.94    0.15
  -4   1   3    1.86    0.15
  -4   1   3    1.98    0.16
  -4   1   3    1.90    0.14
  -4   1   3    2.02    0.14
   3  -1  -3    1.54    0.12
   3  -1  -3    1.18    0.12
   3  -1  -3    1.35    0.14
   3  -1  -3    1.35    0.11
   3  -1  -3    1.37    0.07
   3  -1  -3    1.41    0.11
   3  -1  -3    1.34    0.11
   3  -1  -3    1.44    0.12
   3  -1  -3    1.31    0.09
   3  -1  -3    1.51    0.11
  -3   1   3    1.33    0.10
  -3   1   3    1.20    0.09
  -3   1   3    1.35    0.10
  -3   1   3    1.34    0.12
  -3   1   3    1.33    0.11
  -3   1   3    1.56    0.12
  -3   1   3    1.48    0.12
  -3   1   3    1.80    0.12
   2  -1  -3   18.69    0.59
   2  -1  -3   17.61    0.39
   2  -1  -3   18.78    0.49
   2  -1  -3   17.86    0.50
   2  -1  -3   18.75    0.52
   2  -1  -3   19.28    0.50
   2  -1  -3   18.69    0.52
   2  -1  -3   18.73    0.59
   2  -1  -3   18.88    0.49
   2  -1  -3   18.50    0.44
  -2   1   3   18.54    0.58
  -2   1   3   18.41    0.45
  -2   1   3   19.19    0.46
  -2   1   3   19.11    0.50
  -2   1   3   18.30    0.50
  -2   1   3   18.42    0.52
  -2   1   3   18.44    0.49
  -2   1   3   18.58    0.49
  -2   1   3   18.49    0.52
   1  -1  -3   24.11    0.63
   1  -1  -3   23.95    0.60
   1  -1  -3   23.20    0.59
   1  -1  -3   23.43    0.71
   1  -1  -3   24.18    0.53
   1  -1  -3   23.27    0.71
   1  -1  -3   23.93    0.63
   1  -1  -3   24.15    0.60
   1  -1  -3   24.01    0.55
   1  -1  -3   23.32    0.59
  -1   1   3   24.15    0.55
  -1   1   3   23.76    0.71
  -1   1   3   23.46    0.63
  -1   1   3   23.36    0.71
  -1   1   3   24.17    0.60
  -1   1   3   24.13    0.60
  -1   1   3   23.25    0.59
  -1   1   3   24.07    0.60
  -1   1   3   23.43    0.54
  -1   1   3   24.31    0.59
  -1   1   3   23.61    0.49
  -1   1   3   23.77    0.49
  -1   1   3   23.54    0.63
  -1   1   3   23.96    0.54
   0  -1  -3    1.25    0.06
   0  -1  -3    1.22    0.09
   0  -1  -3    1.21    0.04
   0  -1  -3    1.14    0.09
   0  -1  -3    1.26    0.08
   0  -1  -3    0.95    0.09
   0  -1  -3    1.13    0.06
   0  -1  -3    1.24    0.07
   0  -1  -3    1.26    0.08
   0   1   3    1.28    0.05
   0   1   3    1.20    0.07
   0   1   3    1.25    0.09
   0   1   3    1.24    0.07
   0   1   3    1.14    0.09
   0   1   3    1.20    0.07
   0   1   3    1.19    0.06
   0   1   3    1.23    0.08
   0   1   3    1.24    0.09
  -1  -1  -3    3.05    0.14
  -1  -1  -3    3.41    0.14
  -1  -1  -3    3.33    0.13
  -1  -1  -3    3.47    0.16
  -1  -1  -3    3.43    0.14
  -1  -1  -3    3.23    0.13
  -1  -1  -3    3.36    0.11
  -1  -1  -3    3.33    0.11
  -1  -1  -3    3.42    0.12
   1   1   3    3.55    0.12
   1   1   3    3.18    0.12
   1   1   3    3.31    0.13
   1   1   3    3.39    0.09
   1   1   3    3.45    0.15
   1   1   3    3.39    0.13
   1   1   3    3.49    0.13
   1   1   3    3.27    0.12
   1   1   3    3.17    0.13
   1   1   3    3.46    0.13
  -2  -1  -3  112.38    2.30
  -2  -1  -3  111.01    2.30
  -2  -1  -3  114.11    2.70
  -2  -1  -3  114.71    2.55
  -2  -1  -3  110.64    2.87
  -2  -1  -3  112.21    3.26
  -2  -1  -3  112.41    2.87
  -2  -1  -3  109.07    2.75
  -2  -1  -3  111.94    2.75
  -2  -1  -3  111.17    2.47
   2   1   3  111.06    2.87
   2   1   3  108.02    2.75
   2   1   3  110.16    2.87
   2   1   3  111.22    2.87
   2   1   3  106.03    2.47
   2   1   3  110.65    2.70
   2   1   3  111.59    2.32
   2   1   3  110.16    2.68
   2   1   3  111.53    3.25
  -3  -1  -3    1.36    0.13
  -3  -1  -3    1.29    0.15
  -3  -1  -3    1.20    0.08
  -3  -1  -3    1.27    0.13
  -3  -1  -3    1.35    0.11
  -3  -1  -3    1.27    0.16
  -3  -1  -3    1.47    0.10
  -3  -1  -3    1.22    0.11
  -3  -1  -3    1.22    0.15
  -3  -1  -3    1.43    0.13
  -3  -1  -3    1.29    0.13
  -3  -1  -3    1.27    0.10
   3   1   3    1.40    0.13
   3   1   3    1.17    0.12
   3   1   3    1.20    0.10
   3   1   3    1.03    0.11
   3   1   3    1.34    0.09
   3   1   3    1.34    0.13
   3   1   3    1.32    0.11
   3   1   3    1.38    0.13
  -4  -1  -3    1.06    0.13
  -4  -1  -3    1.10    0.15
  -4  -1  -3    0.98    0.15
   4   1   3    0.90    0.14
   4   1   3    0.85    0.14
   4   1   3    0.95    0.10
  -5  -1  -3    0.62    0.16
  -5  -1  -3    0.69    0.16
   5   1   3    0.98    0.12
   5   1   3    0.90    0.17
   5   1   3    0.81    0.17
   5  -2  -3    0.25    0.13
   5  -2  -3    0.27    0.13
  -5   2   3    0.49    0.15
  -5   2   3    0.20    0.11
  -5   2   3    0.24    0.14
   4  -2  -3    2.81    0.21
   4  -2  -3    3.11    0.25
   4  -2  -3    3.44    0.16
   4  -2  -3    3.06    0.20
   4  -2  -3    2.75    0.18
   4  -2  -3    3.02    0.12
   4  -2  -3    3.39    0.19
  -4   2   3    3.20    0.20
  -4   2   3    3.19    0.20
  -4   2   3    3.31    0.18
  -4   2   3    2.97    0.17
  -4   2   3    2.96    0.17
   3  -2  -3   23.60    0.56
   3  -2  -3   23.30    0.64
   3  -2  -3   22.92    0.50
   3  -2  -3   23.07    0.63
   3  -2  -3   22.80    0.75
   3  -2  -3   23.38    0.67
   3  -2  -3   24.32    0.62
   3  -2  -3   23.27    0.64
   3  -2  -3   22.78    0.76
   3  -2  -3   22.99    0.59
   3  -2  -3   24.62    0.68
  -3   2   3   23.66    0.59
  -3   2   3   21.90    0.57
  -3   2   3   23.67    0.63
  -3   2   3   22.92    0.62
  -3   2   3   23.53    0.75
  -3   2   3   23.87    0.67
  -3   2   3   23.29    0.67
  -3   2   3   23.21    0.57
  -3   2   3   22.92    0.64
   2  -2  -3   17.26    0.37
   2  -2  -3   18.13    0.47
   2  -2  -3   17.23    0.41
   2  -2  -3   17.06    0.43
   2  -2  -3   17.38    0.47
   2  -2  -3   17.07    0.46
   2  -2  -3   17.29    0.49
   2  -2  -3   17.56    0.56
   2  -2  -3   17.10    0.49
   2  -2  -3   17.02    0.37
   2  -2  -3   17.09    0.55
  -2   2   3   17.20    0.46
  -2   2   3   16.79    0.55
  -2   2   3   16.66    0.47
  -2   2   3   17.28    0.42
  -2   2   3   17.24    0.49
  -2   2   3   17.80    0.46
  -2   2   3   17.87    0.49
  -2   2   3   17.40    0.43
  -2   2   3   17.16    0.42
   1  -2  -3    0.04    0.03
   1  -2  -3    0.03    0.04
   1  -2  -3    0.02    0.03
   1  -2  -3    0.04    0.04
   1  -2  -3    0.01    0.04
   1  -2  -3    0.01    0.04
   1  -2  -3    0.05    0.05
   1  -2  -3    0.09    0.03
   1  -2  -3    0.06    0.04
  -1   2   3    0.07    0.04
  -1   2   3    0.06    0.04
  -1   2   3    0.04    0.04
  -1   2   3    0.07    0.05
  -1   2   3    0.05    0.04
  -1   2   3    0.07    0.05
  -1   2   3    0.04    0.03
  -1   2   3    0.05    0.04
  -1   2   3    0.09    0.04
  -1   2   3    0.05    0.02
  -1   2   3    0.01    0.02
  -1   2   3    0.02    0.04
  -1   2   3    0.04    0.04
  -1   2   3    0.07    0.03
   0  -2  -3   78.32    1.91
   0  -2  -3   77.59    2.00
   0  -2  -3   78.76    1.70
   0  -2  -3   72.64    1.88
   0  -2  -3   79.72    1.93
   0  -2  -3   77.48    1.91
   0  -2  -3   78.62    2.25
   0  -2  -3   72.38    2.01
   0  -2  -3   78.23    2.26
   0   2   3   75.75    1.60
   0   2   3   79.12    2.24
   0   2   3   79.16    1.99
   0   2   3   77.07    1.71
   0   2   3   77.18    2.25
   0   2   3   72.47    2.00
   0   2   3   77.57    1.92
   0   2   3   77.58    1.89
   0   2   3   77.70    1.91
   0   2   3   76.98    1.87
   0   2   3   79.83    1.60
  -1  -2  -3  116.71    2.94
  -1  -2  -3  114.16    3.34
  -1  -2  -3  113.02    2.76
  -1  -2  -3  114.85    2.60
  -1  -2  -3  112.36    3.33
  -1  -2  -3  116.00    2.53
  -1  -2  -3  116.38    2.36
  -1  -2  -3  115.74    2.82
  -1  -2  -3  116.55    2.36
  -1  -2  -3  115.69    2.81
  -1  -2  -3  113.09    2.94
  -1  -2  -3  109.85    2.94
   1   2   3  113.03    2.76
   1   2   3  116.49    3.32
   1   2   3  116.55    2.94
   1   2   3  115.32    2.82
   1   2   3  115.02    2.37
   1   2   3  111.30    2.53
   1   2   3  109.59    2.75
   1   2   3  115.52    2.82
   1   2   3  112.23    2.94
  -2  -2  -3   21.33    0.47
  -2  -2  -3   21.63    0.54
  -2  -2  -3   21.22    0.57
  -2  -2  -3   21.77    0.70
  -2  -2  -3   21.40    0.59
  -2  -2  -3   21.51    0.59
  -2  -2  -3   20.67    0.62
  -2  -2  -3   21.77    0.52
  -2  -2  -3   21.78    0.62
   2   2   3   21.33    0.48
   2   2   3   21.27    0.59
   2   2   3   20.69    0.52
   2   2   3   22.16    0.70
   2   2   3   22.57    0.62
   2   2   3   21.33    0.58
   2   2   3   21.41    0.58
   2   2   3   21.06    0.61
  -3  -2  -3    4.97    0.15
  -3  -2  -3    4.99    0.18
  -3  -2  -3    4.79    0.21
  -3  -2  -3    5.18    0.28
  -3  -2  -3    4.98    0.24
  -3  -2  -3    4.73    0.21
  -3  -2  -3    5.26    0.23
  -3  -2  -3    5.25    0.25
   3   2   3    4.90    0.23
   3   2   3    5.27    0.17
   3   2   3    4.98    0.22
   3   2   3    5.29    0.24
   3   2   3    4.87    0.22
   3   2   3    4.85    0.19
   3   2   3    4.77    0.25
  -4  -2  -3    6.68    0.30
  -4  -2  -3    6.91    0.29
  -4  -2  -3    6.66    0.29
   4   2   3    6.76    0.29
   4   2   3    6.68    0.22
   4   2   3    6.18    0.29
  -5  -2  -3    0.33    0.16
  -5  -2  -3    0.57    0.17
   5   2   3    0.49    0.17
   5   2   3    0.31    0.16
   5   2   3    0.43    0.11
   5  -3  -3    3.28    0.23
   5  -3  -3    3.22    0.24
  -5   3   3    3.33    0.24
  -5   3   3    3.16    0.21
  -5   3   3    3.17    0.23
   4  -3  -3    8.54    0.33
   4  -3  -3    7.88    0.30
   4  -3  -3    7.54    0.31
   4  -3  -3    7.80    0.21
  -4   3   3    7.95    0.31
  -4   3   3    7.17    0.26
  -4   3   3    8.21    0.28
  -4   3   3    7.86    0.27
  -4   3   3    7.66    0.30
   3  -3  -3    8.60    0.29
   3  -3  -3    8.41    0.36
   3  -3  -3    8.70    0.21
   3  -3  -3    8.74    0.35
   3  -3  -3    8.42    0.31
   3  -3  -3    9.08    0.25
   3  -3  -3    8.51    0.29
   3  -3  -3    8.52    0.27
   3  -3  -3    8.91    0.31
  -3   3   3    8.46    0.27
  -3   3   3    9.00    0.30
  -3   3   3    8.58    0.35
  -3   3   3    8.67    0.31
  -3   3   3    8.50    0.29
  -3   3   3    8.52    0.26
  -3   3   3    8.91    0.31
  -3   3   3    8.74    0.26
  -3   3   3    9.00    0.27
   2  -3  -3    6.36    0.21
   2  -3  -3    6.14    0.26
   2  -3  -3    6.00    0.15
   2  -3  -3    6.13    0.22
   2  -3  -3    6.12    0.18
   2  -3  -3    6.29    0.22
   2  -3  -3    6.51    0.26
   2  -3  -3    5.81    0.19
   2  -3  -3    6.34    0.21
   2  -3  -3    6.14    0.23
  -2   3   3    6.18    0.22
  -2   3   3    6.28    0.22
  -2   3   3    6.51    0.19
  -2   3   3    5.96    0.19
  -2   3   3    5.78    0.18
  -2   3   3    6.24    0.22
  -2   3   3    6.19    0.20
  -2   3   3    5.86    0.21
  -2   3   3    6.34    0.25
   1  -3  -3   52.41    1.17
   1  -3  -3   53.48    1.37
   1  -3  -3   53.46    1.37
   1  -3  -3   51.08    1.55
   1  -3  -3   52.76    1.31
   1  -3  -3   51.53    1.20
   1  -3  -3   52.33    1.31
   1  -3  -3   51.98    1.08
   1  -3  -3   52.14    1.17
   1  -3  -3   52.50    1.55
   1  -3  -3   51.55    1.08
   1  -3  -3   51.33    1.28
  -1   3   3   52.08    1.18
  -1   3   3   51.42    1.29
  -1   3   3   52.08    1.37
  -1   3   3   52.66    1.17
  -1   3   3   52.44    1.29
  -1   3   3   52.57    1.54
  -1   3   3   52.11    1.54
  -1   3   3   52.65    1.31
  -1   3   3   52.21    1.37
  -1   3   3   51.24    1.31
  -1   3   3   52.05    1.09
   0  -3  -3   43.82    1.32
   0  -3  -3   43.90    1.17
   0  -3  -3   43.30    0.98
   0  -3  -3   43.45    0.90
   0  -3  -3   42.59    1.16
   0  -3  -3   41.48    1.09
   0  -3  -3   43.33    1.12
   0  -3  -3   44.12    1.11
   0  -3  -3   42.41    1.11
   0  -3  -3   43.03    0.90
   0  -3  -3   42.51    1.30
   0   3   3   44.48    0.92
   0   3   3   47.06    1.11
   0   3   3   43.29    0.99
   0   3   3   45.01    1.13
   0   3   3   44.14    1.15
   0   3   3   42.80    1.09
   0   3   3   43.03    0.98
   0   3   3   42.96    0.91
   0   3   3   43.88    1.29
   0   3   3   41.70    1.11
   0   3   3   42.85    1.17
   0   3   3   46.11    1.30
  -1  -3  -3    0.06    0.05
  -1  -3  -3   -0.02    0.03
  -1  -3  -3    0.04    0.05
  -1  -3  -3    0.00    0.07
  -1  -3  -3    0.01    0.05
  -1  -3  -3    0.02    0.05
  -1  -3  -3    0.00    0.02
  -1  -3  -3    0.01    0.06
  -1  -3  -3    0.02    0.06
  -1  -3  -3    0.05    0.05
   1   3   3   -0.05    0.05
   1   3   3    0.01    0.06
   1   3   3    0.02    0.06
   1   3   3   -0.04    0.05
   1   3   3    0.05    0.04
   1   3   3   -0.06    0.05
   1   3   3    0.09    0.05
   1   3   3    0.09    0.05
   1   3   3    0.05    0.05
  -2  -3  -3   20.47    0.68
  -2  -3  -3   20.85    0.53
  -2  -3  -3   20.36    0.45
  -2  -3  -3   20.37    0.58
  -2  -3  -3   20.28    0.60
  -2  -3  -3   20.56    0.56
  -2  -3  -3   20.04    0.60
  -2  -3  -3   20.33    0.51
  -2  -3  -3   21.22    0.58
   2   3   3   19.83    0.56
   2   3   3   20.83    0.58
   2   3   3   20.24    0.57
   2   3   3   20.79    0.60
   2   3   3   20.13    0.51
   2   3   3   21.52    0.47
   2   3   3   20.69    0.60
   2   3   3   20.99    0.68
  -3  -3  -3    4.97    0.25
  -3  -3  -3    4.47    0.15
  -3  -3  -3    5.05    0.24
  -3  -3  -3    4.95    0.23
  -3  -3  -3    5.19    0.19
  -3  -3  -3    4.31    0.22
   3   3   3    5.10    0.24
   3   3   3    4.79    0.17
   3   3   3    4.62    0.19
   3   3   3    5.08    0.25
   3   3   3    4.56    0.22
  -4  -3  -3    0.75    0.14
  -4  -3  -3    0.92    0.15
   4   3   3    1.01    0.11
   4   3   3    1.20    0.16
   4   3   3    0.78    0.15
   5  -4  -3    1.50    0.18
   5  -4  -3    1.34    0.18
  -5   4   3    1.51    0.18
  -5   4   3    1.44    0.18
  -5   4   3    1.56    0.16
   4  -4  -3   -0.03    0.05
   4  -4  -3   -0.03    0.11
   4  -4  -3    0.02    0.10
   4  -4  -3    0.04    0.09
   4  -4  -3    0.01    0.11
  -4   4   3   -0.04    0.08
  -4   4   3   -0.14    0.09
  -4   4   3   -0.04    0.10
  -4   4   3    0.06    0.08
  -4   4   3    0.04    0.11
   3  -4  -3    5.97    0.24
   3  -4  -3    6.13    0.20
   3  -4  -3    6.01    0.24
   3  -4  -3    5.54    0.24
   3  -4  -3    6.02    0.25
   3  -4  -3    6.12    0.17
   3  -4  -3    5.68    0.29
   3  -4  -3    6.08    0.29
   3  -4  -3    5.48    0.21
  -3   4   3    6.13    0.26
  -3   4   3    5.91    0.21
  -3   4   3    5.93    0.22
  -3   4   3    5.94    0.21
  -3   4   3    5.66    0.23
  -3   4   3    6.19    0.24
  -3   4   3    6.29    0.25
  -3   4   3    6.11    0.21
  -3   4   3    5.71    0.27
   2  -4  -3   40.08    1.10
   2  -4  -3   40.81    0.86
   2  -4  -3   40.18    0.94
   2  -4  -3   42.43    1.06
   2  -4  -3   40.47    0.97
   2  -4  -3   42.01    1.10
   2  -4  -3   41.23    0.94
   2  -4  -3   40.04    1.24
   2  -4  -3   40.88    1.25
   2  -4  -3   40.50    1.05
   2  -4  -3   41.11    1.03
  -2   4   3   40.76    0.94
  -2   4   3   40.77    0.95
  -2   4   3   41.02    1.24
  -2   4   3   40.50    1.10
  -2   4   3   40.65    1.04
  -2   4   3   40.39    1.05
  -2   4   3   42.18    1.10
  -2   4   3   40.39    1.02
   1  -4  -3   39.41    1.24
   1  -4  -3   40.73    0.93
   1  -4  -3   40.36    0.86
   1  -4  -3   40.89    1.24
   1  -4  -3   41.25    1.05
   1  -4  -3   40.22    0.93
   1  -4  -3   41.56    1.10
   1  -4  -3   41.07    1.10
   1  -4  -3   40.67    0.95
   1  -4  -3   40.73    0.86
   1  -4  -3   40.60    1.05
   1  -4  -3   40.25    1.02
  -1   4   3   41.30    1.09
  -1   4   3   41.11    0.94
  -1   4   3   40.03    1.05
  -1   4   3   40.47    1.10
  -1   4   3   41.50    1.23
  -1   4   3   40.78    0.94
  -1   4   3   42.69    1.03
  -1   4   3   39.39    1.23
  -1   4   3   43.21    1.06
   0  -4  -3  112.08    2.72
   0  -4  -3  108.14    2.77
   0  -4  -3  111.08    2.90
   0  -4  -3  110.30    3.26
   0  -4  -3  111.24    2.77
   0  -4  -3  109.46    2.31
   0  -4  -3  115.28    2.79
   0  -4  -3  111.42    2.31
   0  -4  -3  114.95    2.48
   0  -4  -3  117.61    2.91
   0  -4  -3  111.09    3.28
   0   4   3  107.53    2.48
   0   4   3  111.23    2.72
   0   4   3  108.83    2.32
   0   4   3  113.47    3.26
   0   4   3  110.22    2.48
   0   4   3  110.56    2.89
   0   4   3  109.82    3.27
   0   4   3  110.72    2.78
   0   4   3  116.21    2.79
   0   4   3  113.52    2.90
  -1  -4  -3   18.69    0.40
  -1  -4  -3   18.59    0.45
  -1  -4  -3   18.44    0.60
  -1  -4  -3   17.94    0.54
  -1  -4  -3   18.10    0.51
  -1  -4  -3   17.96    0.51
  -1  -4  -3   18.26    0.52
  -1  -4  -3   17.60    0.62
  -1  -4  -3   19.00    0.55
   1   4   3   17.80    0.50
   1   4   3   18.72    0.42
   1   4   3   17.99    0.46
   1   4   3   18.64    0.54
   1   4   3   18.80    0.54
   1   4   3   17.97    0.51
   1   4   3   18.46    0.52
   1   4   3   18.99    0.60
   1   4   3   18.68    0.52
  -2  -4  -3   13.71    0.37
  -2  -4  -3   13.50    0.44
  -2  -4  -3   14.28    0.45
  -2  -4  -3   13.24    0.50
  -2  -4  -3   13.67    0.41
  -2  -4  -3   13.60    0.32
  -2  -4  -3   13.82    0.42
  -2  -4  -3   13.60    0.49
   2   4   3   13.46    0.44
   2   4   3   13.88    0.38
   2   4   3   13.79    0.49
   2   4   3   13.76    0.45
   2   4   3   13.56    0.42
   2   4   3   14.58    0.43
   2   4   3   14.00    0.34
   2   4   3   13.80    0.42
  -3  -4  -3    0.83    0.10
  -3  -4  -3    0.78    0.13
  -3  -4  -3    0.74    0.07
  -3  -4  -3    0.96    0.12
  -3  -4  -3    0.86    0.13
   3   4   3    0.90    0.11
   3   4   3    1.05    0.09
   3   4   3    0.63    0.12
   3   4   3    0.65    0.11
  -4  -4  -3    0.11    0.12
  -4  -4  -3    0.29    0.13
   4   4   3    0.16    0.09
   4   4   3    0.11    0.13
   4   4   3    0.28    0.13
   5  -5  -3    0.04    0.14
   5  -5  -3    0.12    0.14
  -5   5   3   -0.03    0.13
  -5   5   3    0.12    0.14
   4  -5  -3    3.42    0.14
   4  -5  -3    3.15    0.20
   4  -5  -3    3.41    0.19
   4  -5  -3    3.41    0.21
  -4   5   3    3.30    0.21
  -4   5   3    3.14    0.18
  -4   5   3    3.31    0.21
   3  -5  -3   11.48    0.37
   3  -5  -3   11.91    0.46
   3  -5  -3   11.85    0.41
   3  -5  -3   11.89    0.29
   3  -5  -3   11.97    0.35
   3  -5  -3   11.69    0.46
   3  -5  -3   11.80    0.33
   3  -5  -3   12.18    0.38
  -3   5   3   11.95    0.39
  -3   5   3   11.43    0.40
  -3   5   3   11.75    0.34
  -3   5   3   11.53    0.38
  -3   5   3   11.95    0.36
  -3   5   3   11.76    0.40
  -3   5   3   12.46    0.46
  -3   5   3   12.34    0.34
   2  -5  -3    6.74    0.17
   2  -5  -3    6.39    0.20
   2  -5  -3    6.79    0.21
   2  -5  -3    7.09    0.25
   2  -5  -3    6.30    0.25
   2  -5  -3    6.84    0.24
   2  -5  -3    6.47    0.24
   2  -5  -3    6.27    0.24
   2  -5  -3    6.47    0.21
   2  -5  -3    6.52    0.29
   2  -5  -3    6.84    0.30
  -2   5   3    7.01    0.25
  -2   5   3    6.63    0.25
  -2   5   3    6.86    0.21
  -2   5   3    6.78    0.24
  -2   5   3    6.63    0.22
  -2   5   3    6.36    0.28
  -2   5   3    6.91    0.21
  -2   5   3    6.69    0.24
   1  -5  -3    3.11    0.16
   1  -5  -3    2.98    0.16
   1  -5  -3    3.07    0.12
   1  -5  -3    3.21    0.15
   1  -5  -3    3.01    0.17
   1  -5  -3    2.70    0.12
   1  -5  -3    2.83    0.20
   1  -5  -3    3.04    0.10
   1  -5  -3    3.27    0.19
   1  -5  -3    3.28    0.17
  -1   5   3    2.91    0.13
  -1   5   3    3.23    0.17
  -1   5   3    3.20    0.17
  -1   5   3    2.98    0.13
  -1   5   3    3.21    0.17
  -1   5   3    3.11    0.16
  -1   5   3    3.10    0.16
   0  -5  -3   23.69    0.78
   0  -5  -3   25.63    0.67
   0  -5  -3   24.66    0.68
   0  -5  -3   24.66    0.80
   0  -5  -3   24.08    0.71
   0  -5  -3   23.86    0.67
   0  -5  -3   24.05    0.58
   0  -5  -3   24.63    0.68
   0  -5  -3   24.38    0.53
   0  -5  -3   26.46    0.73
   0   5   3   23.83    0.70
   0   5   3   23.65    0.54
   0   5   3   23.55    0.59
   0   5   3   25.47    0.69
   0   5   3   24.03    0.59
   0   5   3   25.09    0.71
   0   5   3   24.81    0.78
   0   5   3   24.30    0.66
  -1  -5  -3   25.43    0.80
  -1  -5  -3   25.27    0.68
  -1  -5  -3   24.45    0.71
  -1  -5  -3   24.23    0.60
  -1  -5  -3   25.23    0.73
  -1  -5  -3   24.81    0.68
  -1  -5  -3   24.82    0.54
  -1  -5  -3   23.73    0.82
  -1  -5  -3   23.73    0.68
   1   5   3   24.04    0.60
   1   5   3   25.23    0.67
   1   5   3   24.19    0.68
   1   5   3   24.67    0.71
   1   5   3   25.04    0.79
   1   5   3   24.92    0.55
   1   5   3   24.64    0.73
   1   5   3   25.17    0.67
   1   5   3   23.83    0.61
  -2  -5  -3    4.35    0.21
  -2  -5  -3    3.82    0.23
  -2  -5  -3    4.44    0.14
  -2  -5  -3    4.18    0.21
  -2  -5  -3    4.19    0.26
  -2  -5  -3    4.37    0.18
  -2  -5  -3    4.11    0.21
   2   5   3    4.47    0.22
   2   5   3    4.31    0.22
   2   5   3    4.29    0.24
   2   5   3    3.96    0.21
   2   5   3    4.63    0.21
   2   5   3    4.02    0.18
   2   5   3    4.01    0.15
   2   5   3    4.47    0.22
   2   5   3    4.19    0.20
  -3  -5  -3    4.31    0.20
  -3  -5  -3    4.23    0.22
  -3  -5  -3    3.95    0.15
  -3  -5  -3    3.86    0.21
   3   5   3    4.03    0.17
   3   5   3    3.91    0.23
   3   5   3    3.71    0.23
  -4  -5  -3    1.91    0.19
  -4  -5  -3    1.72    0.19
   4   5   3    1.54    0.19
   4   5   3    1.71    0.13
   4   5   3    1.75    0.19
   5  -6  -3    1.43    0.19
   5  -6  -3    1.29    0.19
  -5   6   3    1.53    0.19
  -5   6   3    1.21    0.18
   4  -6  -3    3.31    0.22
   4  -6  -3    3.07    0.14
   4  -6  -3    3.03    0.21
   4  -6  -3    2.99    0.18
  -4   6   3    3.13    0.22
  -4   6   3    3.58    0.21
  -4   6   3    3.24    0.19
   3  -6  -3    0.55    0.11
   3  -6  -3    0.46    0.09
   3  -6  -3    0.45    0.09
   3  -6  -3    0.56    0.11
   3  -6  -3    0.70    0.12
   3  -6  -3    0.53    0.11
   3  -6  -3    0.49    0.11
   3  -6  -3    0.49    0.06
  -3   6   3    0.56    0.11
  -3   6   3    0.55    0.12
  -3   6   3    0.57    0.12
  -3   6   3    0.57    0.09
  -3   6   3    0.52    0.11
  -3   6   3    0.46    0.09
  -3   6   3    0.48    0.09
   2  -6  -3    3.65    0.19
   2  -6  -3    3.64    0.22
   2  -6  -3    3.93    0.19
   2  -6  -3    3.91    0.19
   2  -6  -3    3.96    0.15
   2  -6  -3    3.70    0.13
   2  -6  -3    3.82    0.16
   2  -6  -3    3.90    0.25
   2  -6  -3    3.91    0.16
  -2   6   3    3.99    0.16
  -2   6   3    3.69    0.19
  -2   6   3    3.92    0.19
  -2   6   3    4.01    0.17
  -2   6   3    3.46    0.22
  -2   6   3    3.88    0.20
  -2   6   3    3.74    0.20
   1  -6  -3    9.27    0.34
   1  -6  -3    9.94    0.24
   1  -6  -3    9.61    0.27
   1  -6  -3   10.50    0.33
   1  -6  -3    9.76    0.34
   1  -6  -3    9.01    0.34
   1  -6  -3   10.24    0.28
   1  -6  -3    9.76    0.39
   1  -6  -3   10.02    0.38
   1  -6  -3    9.49    0.35
  -1   6   3    9.60    0.37
  -1   6   3    9.54    0.34
  -1   6   3   10.08    0.28
  -1   6   3    9.26    0.33
  -1   6   3   10.09    0.35
  -1   6   3    9.43    0.28
  -1   6   3    9.73    0.34
   0  -6  -3    6.70    0.29
   0  -6  -3    6.46    0.31
   0  -6  -3    6.40    0.21
   0  -6  -3    6.54    0.17
   0  -6  -3    7.10    0.27
   0  -6  -3    6.30    0.26
   0  -6  -3    5.70    0.26
   0  -6  -3    7.03    0.26
   0  -6  -3    7.07    0.26
   0  -6  -3    6.67    0.26
   0   6   3    6.37    0.28
   0   6   3    6.47    0.26
   0   6   3    6.46    0.25
   0   6   3    6.36    0.21
   0   6   3    6.72    0.27
   0   6   3    6.31    0.21
   0   6   3    6.87    0.27
  -1  -6  -3    0.61    0.11
  -1  -6  -3    0.72    0.11
  -1  -6  -3    0.54    0.12
  -1  -6  -3    0.73    0.08
  -1  -6  -3    0.52    0.10
  -1  -6  -3    0.49    0.13
  -1  -6  -3    0.56    0.06
   1   6   3    0.85    0.10
   1   6   3    0.66    0.11
   1   6   3    0.67    0.10
   1   6   3    0.54    0.09
   1   6   3    0.69    0.10
   1   6   3    0.67    0.08
   1   6   3    0.77    0.12
   1   6   3    0.68    0.13
   1   6   3    0.70    0.07
  -2  -6  -3    9.72    0.38
  -2  -6  -3    9.68    0.34
  -2  -6  -3    9.01    0.35
  -2  -6  -3    9.51    0.36
  -2  -6  -3    9.61    0.25
  -2  -6  -3    9.67    0.42
  -2  -6  -3    9.33    0.30
   2   6   3    9.18    0.31
   2   6   3    9.59    0.34
   2   6   3   10.21    0.38
   2   6   3    9.08    0.35
   2   6   3    9.30    0.34
   2   6   3    9.42    0.26
   2   6   3    9.70    0.30
   2   6   3    9.32    0.36
  -3  -6  -3    5.95    0.28
  -3  -6  -3    6.41    0.19
  -3  -6  -3    5.81    0.24
  -3  -6  -3    5.76    0.28
   3   6   3    5.89    0.29
   3   6   3    5.79    0.29
   3   6   3    5.90    0.27
   3   6   3    5.81    0.21
  -4  -6  -3    0.28    0.15
  -4  -6  -3    0.38    0.16
   4   6   3    0.19    0.10
   4   6   3    0.42    0.15
   4   6   3    0.09    0.14
   5  -7  -3    0.43    0.16
   5  -7  -3    0.18    0.16
  -5   7   3    0.43    0.17
  -5   7   3    0.17    0.15
   4  -7  -3    0.13    0.12
   4  -7  -3    0.05    0.07
   4  -7  -3    0.12    0.12
   4  -7  -3    0.14    0.10
  -4   7   3    0.03    0.12
  -4   7   3   -0.08    0.09
  -4   7   3    0.04    0.13
   3  -7  -3   -0.01    0.08
   3  -7  -3    0.17    0.06
   3  -7  -3    0.15    0.10
   3  -7  -3   -0.02    0.10
   3  -7  -3    0.22    0.09
   3  -7  -3    0.22    0.11
  -3   7   3    0.13    0.10
  -3   7   3    0.02    0.08
  -3   7   3    0.12    0.11
  -3   7   3    0.12    0.08
  -3   7   3    0.11    0.09
   2  -7  -3  112.20    2.32
   2  -7  -3  111.21    2.49
   2  -7  -3  101.21    2.49
   2  -7  -3  114.27    2.80
   2  -7  -3  109.01    3.30
   2  -7  -3  108.11    2.57
   2  -7  -3  112.92    2.74
   2  -7  -3  109.82    3.29
   2  -7  -3  113.85    2.92
   2  -7  -3  113.03    2.92
  -2   7   3  113.36    2.74
  -2   7   3  113.40    2.92
  -2   7   3  110.54    2.50
  -2   7   3  110.75    3.29
  -2   7   3  110.31    2.50
  -2   7   3  112.02    2.80
  -2   7   3  112.10    2.91
   1  -7  -3    0.72    0.12
   1  -7  -3    0.55    0.06
   1  -7  -3    0.36    0.06
   1  -7  -3    0.53    0.12
   1  -7  -3    0.58    0.08
   1  -7  -3    0.82    0.13
   1  -7  -3    0.63    0.12
   1  -7  -3    0.59    0.12
   1  -7  -3    0.69    0.12
  -1   7   3    0.51    0.11
  -1   7   3    0.52    0.11
  -1   7   3    0.63    0.09
  -1   7   3    0.61    0.11
  -1   7   3    0.69    0.12
  -1   7   3    0.59    0.08
  -1   7   3    0.63    0.11
   0  -7  -3   17.18    0.60
   0  -7  -3   16.29    0.54
   0  -7  -3   17.18    0.39
   0  -7  -3   17.01    0.61
   0  -7  -3   17.66    0.51
   0  -7  -3   17.98    0.53
   0  -7  -3   17.23    0.45
   0  -7  -3   16.70    0.55
   0   7   3   16.99    0.45
   0   7   3   16.82    0.49
   0   7   3   16.98    0.51
   0   7   3   17.22    0.60
   0   7   3   17.24    0.54
   0   7   3   16.60    0.45
   0   7   3   17.30    0.55
   0   7   3   17.56    0.53
  -1  -7  -3   13.96    0.54
  -1  -7  -3   16.35    0.53
  -1  -7  -3   14.75    0.52
  -1  -7  -3   16.48    0.38
  -1  -7  -3   16.77    0.59
  -1  -7  -3   15.16    0.53
  -1  -7  -3   15.92    0.60
  -1  -7  -3   16.21    0.43
   1   7   3   15.72    0.56
   1   7   3   15.82    0.57
   1   7   3   16.18    0.52
   1   7   3   17.20    0.54
   1   7   3   16.52    0.44
   1   7   3   16.84    0.50
   1   7   3   16.88    0.44
   1   7   3   16.95    0.49
   1   7   3   16.03    0.39
  -2  -7  -3    5.11    0.21
  -2  -7  -3    4.34    0.24
  -2  -7  -3    4.73    0.27
  -2  -7  -3    4.56    0.25
  -2  -7  -3    5.03    0.17
   2   7   3    4.86    0.24
   2   7   3    4.81    0.21
   2   7   3    4.62    0.18
   2   7   3    5.07    0.26
   2   7   3    4.75    0.22
  -3  -7  -3    0.46    0.14
  -3  -7  -3    0.62    0.08
  -3  -7  -3    0.63    0.14
   3   7   3    0.61    0.10
   3   7   3    0.61    0.15
   3   7   3    0.59    0.14
   3   7   3    0.40    0.13
  -4  -7  -3    0.49    0.16
  -4  -7  -3    0.65    0.17
   4   7   3    0.62    0.17
   4   7   3    0.60    0.18
   4   7   3    0.78    0.12
   4   7   3    0.68    0.17
   5  -8  -3    0.08    0.15
   5  -8  -3    0.38    0.17
  -5   8   3    0.36    0.16
  -5   8   3    0.09    0.15
   4  -8  -3    2.50    0.21
   4  -8  -3    2.49    0.18
   4  -8  -3    2.40    0.20
   4  -8  -3    2.56    0.14
  -4   8   3    2.51    0.21
  -4   8   3    2.26    0.20
   3  -8  -3   11.67    0.35
   3  -8  -3   11.28    0.41
   3  -8  -3   11.66    0.30
   3  -8  -3   11.64    0.40
   3  -8  -3   11.15    0.36
  -3   8   3   11.78    0.41
  -3   8   3   11.27    0.41
  -3   8   3   12.53    0.38
  -3   8   3   11.17    0.36
   2  -8  -3    0.76    0.13
   2  -8  -3    0.85    0.13
   2  -8  -3    0.68    0.09
   2  -8  -3    0.66    0.16
   2  -8  -3    0.79    0.13
   2  -8  -3    0.70    0.07
   2  -8  -3    0.66    0.10
   2  -8  -3    0.81    0.14
  -2   8   3    0.82    0.13
  -2   8   3    0.72    0.10
  -2   8   3    0.68    0.13
  -2   8   3    0.79    0.11
  -2   8   3    0.75    0.13
   1  -8  -3    4.68    0.25
   1  -8  -3    5.12    0.16
   1  -8  -3    4.69    0.19
   1  -8  -3    4.18    0.26
   1  -8  -3    5.14    0.29
   1  -8  -3    4.75    0.30
   1  -8  -3    5.20    0.27
   1  -8  -3    5.16    0.28
  -1   8   3    5.09    0.28
  -1   8   3    4.60    0.27
  -1   8   3    5.07    0.20
  -1   8   3    5.66    0.21
  -1   8   3    5.05    0.25
  -1   8   3    4.55    0.24
  -1   8   3    4.39    0.27
   0  -8  -3   12.90    0.31
   0  -8  -3   12.30    0.44
   0  -8  -3   13.35    0.46
   0  -8  -3   13.41    0.43
   0  -8  -3   13.14    0.37
   0  -8  -3   12.55    0.50
   0  -8  -3   12.29    0.48
   0  -8  -3   12.49    0.43
   0   8   3   13.17    0.42
   0   8   3   12.57    0.36
   0   8   3   13.08    0.45
   0   8   3   12.96    0.45
   0   8   3   12.25    0.40
   0   8   3   13.28    0.44
   0   8   3   12.02    0.36
  -1  -8  -3    4.83    0.28
  -1  -8  -3    5.11    0.20
  -1  -8  -3    4.62    0.27
  -1  -8  -3    4.63    0.26
  -1  -8  -3    5.04    0.17
   1   8   3    4.81    0.27
   1   8   3    5.11    0.21
   1   8   3    5.31    0.30
   1   8   3    4.72    0.25
   1   8   3    5.04    0.22
  -2  -8  -3    0.06    0.14
  -2  -8  -3    0.03    0.13
  -2  -8  -3    0.00    0.09
  -2  -8  -3    0.11    0.06
   2   8   3    0.17    0.08
   2   8   3    0.00    0.12
   2   8   3   -0.04    0.12
  -3  -8  -3    3.36    0.16
  -3  -8  -3    3.52    0.27
  -3  -8  -3    3.26    0.24
   3   8   3    3.53    0.25
   3   8   3    3.20    0.25
   3   8   3    3.59    0.18
   4  -9  -3    2.02    0.21
   4  -9  -3    1.81    0.12
   4  -9  -3    1.93    0.21
  -4   9   3    1.94    0.21
  -4   9   3    1.85    0.21
   3  -9  -3    2.27    0.13
   3  -9  -3    2.19    0.20
   3  -9  -3    2.05    0.16
   3  -9  -3    1.83    0.19
   3  -9  -3    2.51    0.18
  -3   9   3    2.16    0.20
  -3   9   3    2.26    0.18
  -3   9   3    2.45    0.21
   2  -9  -3   10.29    0.27
   2  -9  -3   10.00    0.39
   2  -9  -3    9.67    0.39
   2  -9  -3    9.71    0.33
   2  -9  -3   10.00    0.32
  -2   9   3    9.65    0.38
  -2   9   3   10.20    0.32
  -2   9   3    9.74    0.40
   1  -9  -3    0.29    0.12
   1  -9  -3    0.09    0.12
   1  -9  -3    0.19    0.09
   1  -9  -3    0.18    0.06
   1  -9  -3    0.17    0.07
   1  -9  -3    0.21    0.13
  -1   9   3    0.24    0.10
  -1   9   3    0.23    0.09
  -1   9   3    0.33    0.12
  -1   9   3    0.29    0.12
  -1   9   3    0.25    0.12
   0  -9  -3    1.31    0.12
   0  -9  -3    1.52    0.15
   0  -9  -3    1.29    0.09
   0  -9  -3    1.58    0.16
   0  -9  -3    1.30    0.15
   0   9   3    1.37    0.15
   0   9   3    1.37    0.15
   0   9   3    1.49    0.13
   0   9   3    1.51    0.13
  -1  -9  -3    1.00    0.11
  -1  -9  -3    0.90    0.15
  -1  -9  -3    0.91    0.15
  -1  -9  -3    0.84    0.08
   1   9   3    0.78    0.15
   1   9   3    0.75    0.11
   1   9   3    0.88    0.15
  -2  -9  -3    3.26    0.14
  -2  -9  -3    3.16    0.28
  -2  -9  -3    2.97    0.26
   2   9   3    2.76    0.24
   2   9   3    3.38    0.25
  -3  -9  -3    0.11    0.15
  -3  -9  -3    0.50    0.18
   3   9   3    0.05    0.15
   3   9   3    0.58    0.17
   4 -10  -3    0.55    0.18
   4 -10  -3    0.59    0.17
  -4  10   3    0.93    0.19
  -4  10   3    0.55    0.17
   3 -10  -3    7.00    0.34
   3 -10  -3    6.94    0.35
   3 -10  -3    6.76    0.29
   3 -10  -3    6.95    0.22
  -3  10   3    6.60    0.34
  -3  10   3    7.23    0.29
  -3  10   3    7.04    0.34
   2 -10  -3    6.81    0.35
   2 -10  -3    7.94    0.29
   2 -10  -3    8.05    0.36
   2 -10  -3    7.74    0.29
   2 -10  -3    8.02    0.23
  -2  10   3    7.01    0.36
  -2  10   3    7.88    0.35
   1 -10  -3    0.03    0.07
   1 -10  -3    0.16    0.13
   1 -10  -3    0.12    0.09
   1 -10  -3    0.01    0.12
  -1  10   3    0.07    0.12
  -1  10   3    0.01    0.09
  -1  10   3    0.06    0.12
  -1  10   3    0.03    0.13
   0 -10  -3    3.11    0.14
   0 -10  -3    2.85    0.17
   0 -10  -3    3.41    0.23
   0  10   3    2.80    0.22
   0  10   3    3.29    0.23
   0  10   3    3.38    0.19
  -1 -10  -3    4.13    0.27
  -1 -10  -3    4.14    0.16
  -1 -10  -3    4.15    0.21
  -1 -10  -3    3.73    0.26
   1  10   3    4.32    0.27
   1  10   3    3.91    0.27
  -2 -10  -3    1.89    0.12
  -2 -10  -3    1.16    0.21
  -2 -10  -3    1.15    0.22
   2  10   3    1.50    0.20
   2  10   3    1.18    0.20
   3 -11  -3    2.53    0.25
   3 -11  -3    2.28    0.24
   3 -11  -3    2.07    0.13
  -3  11   3    2.30    0.24
  -3  11   3    2.12    0.24
   2 -11  -3    0.75    0.19
   2 -11  -3    0.70    0.09
   2 -11  -3    0.56    0.17
   2 -11  -3    0.68    0.13
  -2  11   3    1.07    0.18
  -2  11   3    0.71    0.18
   1 -11  -3    2.97    0.23
   1 -11  -3    3.30    0.25
   1 -11  -3    3.17    0.16
  -1  11   3    3.57    0.27
  -1  11   3    3.46    0.25
  -1  11   3    2.88    0.23
   0 -11  -3    2.75    0.14
   0 -11  -3    2.53    0.21
   0 -11  -3    2.97    0.22
   0  11   3    2.81    0.22
   0  11   3    2.85    0.23
  -1 -11  -3    1.73    0.11
  -1 -11  -3    1.95    0.20
  -1 -11  -3    2.01    0.20
   1  11   3    1.56    0.19
   1  11   3    1.80    0.20
  -2 -11  -3    0.03    0.18
  -2 -11  -3    0.06    0.16
  -2 -11  -3   -0.01    0.08
   2  11   3    0.13    0.17
   2  11   3   -0.07    0.15
   3 -12  -3    1.95    0.24
   3 -12  -3    1.91    0.13
   3 -12  -3    1.64    0.25
  -3  12   3    1.73    0.24
  -3  12   3    1.96    0.25
   2 -12  -3    2.55    0.15
   2 -12  -3    2.86    0.28
   2 -12  -3    2.51    0.20
   2 -12  -3    2.40    0.25
  -2  12   3    2.46    0.25
  -2  12   3    2.62    0.25
   1 -12  -3    2.10    0.13
   1 -12  -3    2.06    0.21
   1 -12  -3    2.23    0.23
  -1  12   3    2.59    0.23
  -1  12   3    1.98    0.22
  -1  12   3    2.15    0.22
   0 -12  -3    0.14    0.13
   0 -12  -3    0.24    0.14
   0 -12  -3    0.07    0.08
   0  12   3   -0.07    0.14
   0  12   3   -0.04    0.13
  -1 -12  -3    0.90    0.18
  -1 -12  -3    1.07    0.19
  -1 -12  -3    0.95    0.10
   1  12   3    0.95    0.18
   1  12   3    1.12    0.18
   2 -13  -3    0.90    0.22
   2 -13  -3    0.76    0.19
   2 -13  -3    0.59    0.10
  -2  13   3    0.79    0.20
  -2  13   3    0.77    0.19
   1 -13  -3    0.09    0.14
   1 -13  -3    0.03    0.09
   1 -13  -3    0.20    0.16
  -1  13   3    0.08    0.15
  -1  13   3    0.30    0.15
  -1  13   3    0.15    0.15
   0 -13  -3    1.64    0.20
   0 -13  -3    1.78    0.13
   0 -13  -3    2.18    0.22
   0  13   3    1.70    0.21
   0  13   3    1.41    0.20
   0  14  -4    2.87    0.23
   0 -14   4    3.11    0.18
   0 -14   4    3.00    0.24
  -1  14  -4    0.11    0.14
   1 -14   4    0.09    0.10
   1 -14   4    0.10    0.15
   1  13  -4    1.49    0.18
  -1 -13   4    1.35    0.18
  -1 -13   4    1.55    0.13
   0  13  -4    1.37    0.17
   0 -13   4    1.28    0.11
   0 -13   4    1.22    0.17
  -1  13  -4    4.20    0.25
   1 -13   4    3.73    0.17
   1 -13   4    3.85    0.26
  -2  13  -4    3.39    0.25
   2 -13   4    3.35    0.27
   2 -13   4    3.77    0.19
   2  12  -4    0.72    0.16
  -2 -12   4    0.79    0.19
  -2 -12   4    0.93    0.11
   1  12  -4   -0.09    0.11
   1  12  -4   -0.05    0.13
  -1 -12   4    0.01    0.12
  -1 -12   4   -0.06    0.08
   0  12  -4    6.18    0.36
   0  12  -4    5.79    0.28
   0  12  -4    5.77    0.31
   0 -12   4    6.29    0.25
   0 -12   4    6.33    0.21
   0 -12   4    6.30    0.29
  -1  12  -4    0.21    0.13
  -1  12  -4    0.47    0.13
  -1  12  -4    0.38    0.17
   1 -12   4    0.22    0.08
   1 -12   4    0.16    0.13
   1 -12   4    0.26    0.11
  -2  12  -4    0.37    0.16
  -2  12  -4    0.46    0.14
   2 -12   4    0.52    0.10
   2 -12   4    0.30    0.15
  -3  12  -4    0.58    0.16
   3 -12   4    0.85    0.13
   3 -12   4    0.81    0.18
   3  11  -4    0.46    0.16
  -3 -11   4    0.53    0.18
   2  11  -4    2.33    0.21
   2  11  -4    2.05    0.25
  -2 -11   4    1.91    0.23
   1  11  -4    3.21    0.21
   1  11  -4    3.32    0.21
   1  11  -4    3.15    0.28
   1  11  -4    3.08    0.23
  -1 -11   4    3.03    0.19
  -1 -11   4    3.11    0.23
  -1 -11   4    2.97    0.15
   0  11  -4    3.02    0.20
   0  11  -4    3.26    0.26
   0  11  -4    2.75    0.22
   0  11  -4    3.26    0.20
   0 -11   4    3.19    0.21
   0 -11   4    3.17    0.21
   0 -11   4    3.24    0.15
   0 -11   4    2.86    0.17
  -1  11  -4    0.58    0.14
  -1  11  -4    0.83    0.17
  -1  11  -4    0.73    0.13
  -1  11  -4    0.62    0.12
   1 -11   4    0.87    0.13
   1 -11   4    0.66    0.14
   1 -11   4    0.64    0.11
   1 -11   4    0.84    0.09
  -2  11  -4    1.04    0.15
  -2  11  -4    0.89    0.15
  -2  11  -4    1.19    0.20
   2 -11   4    0.90    0.15
   2 -11   4    0.87    0.12
   2 -11   4    0.78    0.11
  -3  11  -4    2.71    0.22
   3 -11   4    2.46    0.17
   3 -11   4    2.68    0.22
   3  10  -4    0.34    0.14
  -3 -10   4    0.58    0.16
   2  10  -4    6.65    0.29
   2  10  -4    6.46    0.38
   2  10  -4    6.63    0.37
   2  10  -4    6.91    0.32
  -2 -10   4    6.84    0.34
  -2 -10   4    6.51    0.33
  -2 -10   4    7.07    0.29
   1  10  -4    1.19    0.14
   1  10  -4    1.25    0.19
   1  10  -4    1.22    0.19
   1  10  -4    0.97    0.11
   1  10  -4    1.50    0.14
   1  10  -4    1.38    0.17
   1  10  -4    1.17    0.16
  -1 -10   4    1.14    0.12
  -1 -10   4    1.16    0.14
  -1 -10   4    1.28    0.16
  -1 -10   4    1.38    0.13
   0  10  -4    0.78    0.09
   0  10  -4    0.62    0.13
   0  10  -4    0.74    0.12
   0  10  -4    0.79    0.11
   0  10  -4    0.69    0.14
   0  10  -4    0.68    0.13
   0  10  -4    0.49    0.16
   0 -10   4    0.69    0.08
   0 -10   4    0.71    0.11
   0 -10   4    0.97    0.13
   0 -10   4    0.72    0.10
   0 -10   4    0.66    0.10
  -1  10  -4    5.08    0.27
  -1  10  -4    5.05    0.22
  -1  10  -4    4.80    0.26
  -1  10  -4    5.67    0.30
  -1  10  -4    5.37    0.34
  -1  10  -4    4.85    0.23
   1 -10   4    5.04    0.20
   1 -10   4    4.71    0.23
   1 -10   4    4.83    0.18
   1 -10   4    4.80    0.24
  -2  10  -4    7.37    0.37
  -2  10  -4    6.81    0.29
  -2  10  -4    7.13    0.28
  -2  10  -4    7.13    0.32
   2 -10   4    6.89    0.25
   2 -10   4    7.17    0.24
   2 -10   4    7.05    0.28
   2 -10   4    6.96    0.30
  -3  10  -4    0.86    0.17
  -3  10  -4    0.55    0.14
   3 -10   4    0.70    0.12
   3 -10   4    0.80    0.15
  -4  10  -4   -0.04    0.14
   4 -10   4    0.01    0.13
   4 -10   4   -0.03    0.11
   4   9  -4    0.77    0.18
   4   9  -4    0.55    0.16
  -4  -9   4    0.62    0.16
   3   9  -4    1.69    0.19
   3   9  -4    1.87    0.18
   3   9  -4    1.50    0.17
  -3  -9   4    2.04    0.18
   2   9  -4    0.10    0.06
   2   9  -4    0.09    0.10
   2   9  -4    0.10    0.11
   2   9  -4   -0.07    0.12
   2   9  -4    0.08    0.12
   2   9  -4   -0.06    0.14
  -2  -9   4    0.01    0.11
  -2  -9   4    0.18    0.10
  -2  -9   4    0.16    0.12
   1   9  -4    0.90    0.16
   1   9  -4    0.98    0.10
   1   9  -4    1.24    0.17
   1   9  -4    1.07    0.07
   1   9  -4    1.27    0.16
   1   9  -4    1.08    0.16
   1   9  -4    1.15    0.13
   1   9  -4    1.10    0.12
  -1  -9   4    1.16    0.11
  -1  -9   4    1.13    0.13
  -1  -9   4    1.19    0.15
  -1  -9   4    1.23    0.11
  -1  -9   4    1.03    0.10
   0   9  -4   16.38    0.51
   0   9  -4   15.41    0.35
   0   9  -4   15.95    0.56
   0   9  -4   15.43    0.44
   0   9  -4   16.24    0.58
   0   9  -4   15.18    0.35
   0   9  -4   15.13    0.44
   0   9  -4   16.83    0.49
   0   9  -4   15.14    0.50
   0   9  -4   15.32    0.47
   0   9  -4   14.48    0.42
   0  -9   4   15.01    0.42
   0  -9   4   15.25    0.37
   0  -9   4   15.22    0.47
   0  -9   4   15.84    0.47
   0  -9   4   15.34    0.41
  -1   9  -4   13.08    0.33
  -1   9  -4   12.88    0.41
  -1   9  -4   10.96    0.52
  -1   9  -4   13.21    0.39
  -1   9  -4   13.19    0.31
  -1   9  -4   12.99    0.44
  -1   9  -4   13.21    0.45
  -1   9  -4   13.01    0.49
   1  -9   4   13.38    0.32
   1  -9   4   13.24    0.39
   1  -9   4   12.91    0.36
   1  -9   4   13.75    0.41
   1  -9   4   13.61    0.42
  -2   9  -4    0.11    0.10
  -2   9  -4    0.04    0.09
  -2   9  -4    0.10    0.13
  -2   9  -4    0.15    0.10
  -2   9  -4    0.02    0.10
  -2   9  -4   -0.06    0.05
  -2   9  -4   -0.10    0.17
   2  -9   4    0.00    0.07
   2  -9   4    0.12    0.08
   2  -9   4    0.15    0.10
   2  -9   4    0.08    0.10
   2  -9   4   -0.02    0.10
  -3   9  -4    4.62    0.31
  -3   9  -4    3.49    0.22
  -3   9  -4    3.75    0.25
  -3   9  -4    4.45    0.24
   3  -9   4    4.08    0.20
   3  -9   4    4.08    0.19
   3  -9   4    3.58    0.23
   3  -9   4    4.08    0.24
  -4   9  -4    4.92    0.28
   4  -9   4    5.13    0.22
   4  -9   4    4.47    0.26
   4   8  -4    4.62    0.28
   4   8  -4    4.45    0.27
  -4  -8   4    4.78    0.27
   3   8  -4    0.20    0.17
   3   8  -4    0.29    0.11
   3   8  -4    0.20    0.12
   3   8  -4    0.24    0.07
   3   8  -4    0.15    0.12
   3   8  -4    0.18    0.11
  -3  -8   4    0.20    0.11
  -3  -8   4    0.30    0.12
  -3  -8   4    0.36    0.12
   2   8  -4   12.27    0.52
   2   8  -4   13.52    0.32
   2   8  -4   13.02    0.49
   2   8  -4   13.76    0.41
   2   8  -4   12.00    0.44
   2   8  -4   12.82    0.43
   2   8  -4   13.49    0.46
  -2  -8   4   13.79    0.43
  -2  -8   4   13.29    0.43
  -2  -8   4   13.05    0.40
  -2  -8   4   13.27    0.37
   1   8  -4   11.89    0.46
   1   8  -4   13.16    0.41
   1   8  -4   12.34    0.48
   1   8  -4   12.82    0.49
   1   8  -4   12.48    0.40
   1   8  -4   12.77    0.29
   1   8  -4   12.79    0.37
   1   8  -4   13.18    0.29
   1   8  -4   11.54    0.44
   1   8  -4   13.17    0.38
  -1  -8   4   12.15    0.42
  -1  -8   4   13.38    0.38
  -1  -8   4   13.02    0.35
  -1  -8   4   12.51    0.41
  -1  -8   4   12.82    0.35
  -1  -8   4   12.60    0.41
   0   8  -4    6.01    0.20
   0   8  -4    6.08    0.22
   0   8  -4    6.23    0.29
   0   8  -4    6.26    0.31
   0   8  -4    6.21    0.26
   0   8  -4    6.15    0.24
   0   8  -4    7.13    0.27
   0   8  -4    6.58    0.27
   0  -8   4    6.61    0.25
   0  -8   4    6.59    0.21
   0  -8   4    6.30    0.24
   0  -8   4    6.42    0.24
   0  -8   4    6.42    0.21
  -1   8  -4    0.76    0.17
  -1   8  -4    0.84    0.05
  -1   8  -4    0.84    0.05
  -1   8  -4    0.84    0.09
  -1   8  -4    0.82    0.05
  -1   8  -4    1.03    0.11
  -1   8  -4    0.98    0.12
  -1   8  -4    0.87    0.13
  -1   8  -4    0.98    0.12
  -1   8  -4    1.01    0.12
   1  -8   4    0.65    0.10
   1  -8   4    0.78    0.08
   1  -8   4    0.85    0.10
   1  -8   4    0.93    0.11
   1  -8   4    0.85    0.10
   1  -8   4    0.87    0.07
  -2   8  -4    8.31    0.22
  -2   8  -4    7.69    0.29
  -2   8  -4    8.10    0.31
  -2   8  -4    8.69    0.29
  -2   8  -4    8.50    0.32
  -2   8  -4    8.01    0.35
  -2   8  -4    8.49    0.39
   2  -8   4    8.06    0.29
   2  -8   4    8.16    0.25
   2  -8   4    7.91    0.27
   2  -8   4    7.73    0.29
   2  -8   4    8.26    0.29
   2  -8   4    7.74    0.24
  -3   8  -4   10.10    0.29
  -3   8  -4   10.10    0.36
  -3   8  -4   10.58    0.45
  -3   8  -4    9.99    0.39
  -3   8  -4   10.56    0.35
   3  -8   4   10.24    0.30
   3  -8   4   10.09    0.32
   3  -8   4    9.81    0.35
   3  -8   4   10.09    0.36
   3  -8   4   10.19    0.35
  -4   8  -4    1.65    0.18
   4  -8   4    1.80    0.14
   4  -8   4    1.41    0.18
   4   7  -4    0.44    0.14
   4   7  -4    0.56    0.15
  -4  -7   4    0.37    0.14
   3   7  -4   12.07    0.41
   3   7  -4   13.16    0.52
   3   7  -4   12.13    0.40
   3   7  -4   11.48    0.42
   3   7  -4   12.29    0.41
   3   7  -4   12.73    0.32
  -3  -7   4   12.55    0.41
  -3  -7   4   11.73    0.40
  -3  -7   4   11.17    0.40
   2   7  -4    8.37    0.38
   2   7  -4    9.00    0.31
   2   7  -4    8.91    0.37
   2   7  -4    8.69    0.22
   2   7  -4    8.42    0.31
   2   7  -4    9.17    0.30
   2   7  -4    7.91    0.32
   2   7  -4    8.13    0.29
   2   7  -4    9.06    0.33
   2   7  -4    8.68    0.22
  -2  -7   4    8.40    0.30
  -2  -7   4    8.37    0.31
  -2  -7   4    8.65    0.26
  -2  -7   4    8.49    0.30
  -2  -7   4    8.91    0.30
   1   7  -4    4.40    0.17
   1   7  -4    4.38    0.19
   1   7  -4    4.18    0.23
   1   7  -4    4.28    0.20
   1   7  -4    4.23    0.22
   1   7  -4    4.00    0.22
   1   7  -4    4.20    0.24
   1   7  -4    4.60    0.18
  -1  -7   4    4.52    0.19
  -1  -7   4    4.35    0.21
  -1  -7   4    4.55    0.16
  -1  -7   4    4.25    0.16
  -1  -7   4    4.20    0.21
  -1  -7   4    4.53    0.18
   0   7  -4    1.57    0.13
   0   7  -4    1.80    0.13
   0   7  -4    1.74    0.09
   0   7  -4    1.83    0.15
   0   7  -4    1.81    0.12
   0   7  -4    1.77    0.11
   0   7  -4    1.78    0.14
   0   7  -4    1.71    0.16
   0  -7   4    1.76    0.10
   0  -7   4    1.80    0.12
   0  -7   4    1.56    0.12
   0  -7   4    1.75    0.09
   0  -7   4    1.82    0.10
   0  -7   4    1.65    0.13
  -1   7  -4   20.91    0.58
  -1   7  -4   21.14    0.67
  -1   7  -4   22.14    0.61
  -1   7  -4   20.93    0.60
  -1   7  -4   20.67    0.57
  -1   7  -4   21.16    0.71
  -1   7  -4   20.60    0.55
   1  -7   4   21.10    0.56
   1  -7   4   17.87    0.52
   1  -7   4   20.73    0.46
   1  -7   4   21.26    0.59
   1  -7   4   20.66    0.50
   1  -7   4   20.72    0.57
  -2   7  -4    9.32    0.31
  -2   7  -4    8.83    0.37
  -2   7  -4    9.06    0.23
  -2   7  -4    8.53    0.37
  -2   7  -4    8.58    0.29
  -2   7  -4    9.01    0.23
  -2   7  -4    8.96    0.32
  -2   7  -4    8.65    0.30
  -2   7  -4    9.20    0.32
   2  -7   4    8.80    0.27
   2  -7   4    8.84    0.27
   2  -7   4    8.87    0.25
   2  -7   4    8.86    0.30
   2  -7   4    8.98    0.31
   2  -7   4    9.33    0.30
   2  -7   4    8.81    0.30
  -3   7  -4    0.59    0.12
  -3   7  -4    0.65    0.12
  -3   7  -4    0.62    0.15
  -3   7  -4    0.53    0.08
  -3   7  -4    0.68    0.11
  -3   7  -4    0.69    0.13
   3  -7   4    0.47    0.09
   3  -7   4    0.39    0.11
   3  -7   4    0.60    0.11
   3  -7   4    0.53    0.10
   3  -7   4    0.51    0.12
  -4   7  -4    3.25    0.22
  -4   7  -4    2.98    0.23
   4  -7   4    3.47    0.18
   4  -7   4    3.04    0.23
   4   6  -4    9.60    0.36
   4   6  -4    9.30    0.37
   4   6  -4    9.67    0.39
  -4  -6   4    8.82    0.35
  -4  -6   4    8.85    0.36
   3   6  -4    4.47    0.24
   3   6  -4    3.96    0.26
   3   6  -4    4.58    0.22
   3   6  -4    4.71    0.24
   3   6  -4    4.44    0.21
   3   6  -4    4.74    0.16
   3   6  -4    4.47    0.28
  -3  -6   4    4.54    0.22
  -3  -6   4    4.71    0.19
  -3  -6   4    4.58    0.22
  -3  -6   4    4.54    0.22
   2   6  -4    3.97    0.20
   2   6  -4    4.27    0.19
   2   6  -4    3.88    0.22
   2   6  -4    4.16    0.18
   2   6  -4    4.48    0.20
   2   6  -4    4.44    0.13
   2   6  -4    4.20    0.24
   2   6  -4    4.37    0.13
   2   6  -4    4.53    0.19
   2   6  -4    4.42    0.19
   2   6  -4    4.04    0.18
  -2  -6   4    4.36    0.18
  -2  -6   4    4.06    0.16
  -2  -6   4    4.76    0.19
  -2  -6   4    4.12    0.19
  -2  -6   4    4.38    0.20
   1   6  -4    3.21    0.17
   1   6  -4    3.14    0.14
   1   6  -4    3.08    0.18
   1   6  -4    2.99    0.14
   1   6  -4    3.19    0.14
   1   6  -4    3.05    0.19
   1   6  -4    3.06    0.16
   1   6  -4    3.40    0.17
  -1  -6   4    3.21    0.15
  -1  -6   4    3.17    0.13
  -1  -6   4    2.98    0.13
  -1  -6   4    2.97    0.12
  -1  -6   4    3.00    0.16
  -1  -6   4    3.23    0.16
   0   6  -4   24.44    0.80
   0   6  -4   25.64    0.71
   0   6  -4   26.54    0.68
   0   6  -4   25.79    0.66
   0   6  -4   25.12    0.78
   0   6  -4   25.06    0.63
   0   6  -4   24.15    0.70
   0   6  -4   25.03    0.64
   0  -6   4   25.06    0.59
   0  -6   4   24.66    0.66
   0  -6   4   24.97    0.58
   0  -6   4   25.29    0.63
   0  -6   4   24.82    0.65
   0  -6   4   24.87    0.66
   0  -6   4   25.46    0.68
  -1   6  -4   18.93    0.60
  -1   6  -4   18.77    0.51
  -1   6  -4   19.84    0.54
  -1   6  -4   18.67    0.54
  -1   6  -4   19.00    0.51
  -1   6  -4   18.70    0.49
  -1   6  -4   19.19    0.63
   1  -6   4   19.05    0.53
   1  -6   4   18.87    0.51
   1  -6   4   18.51    0.41
   1  -6   4   18.11    0.45
   1  -6   4   18.38    0.50
   1  -6   4   17.99    0.47
  -2   6  -4    0.19    0.12
  -2   6  -4    0.34    0.05
  -2   6  -4    0.15    0.08
  -2   6  -4    0.29    0.09
  -2   6  -4    0.34    0.08
  -2   6  -4    0.33    0.05
  -2   6  -4    0.30    0.09
  -2   6  -4    0.30    0.10
  -2   6  -4    0.30    0.08
   2  -6   4    0.34    0.07
   2  -6   4    0.34    0.07
   2  -6   4    0.38    0.08
   2  -6   4    0.39    0.09
   2  -6   4    0.34    0.08
   2  -6   4    0.35    0.06
   2  -6   4    0.19    0.08
  -3   6  -4    8.53    0.30
  -3   6  -4    9.03    0.39
  -3   6  -4    8.77    0.33
  -3   6  -4    7.99    0.31
  -3   6  -4    9.07    0.39
  -3   6  -4    8.93    0.25
  -3   6  -4    8.72    0.33
   3  -6   4    8.88    0.28
   3  -6   4    8.35    0.27
   3  -6   4    8.09    0.29
   3  -6   4    8.15    0.31
   3  -6   4    9.09    0.32
   3  -6   4    8.58    0.24
  -4   6  -4   11.91    0.40
  -4   6  -4   10.61    0.40
   4  -6   4   10.94    0.32
   4  -6   4   11.61    0.41
   4  -6   4   11.02    0.40
   5   5  -4    1.40    0.19
  -5  -5   4    1.59    0.19
   4   5  -4    3.92    0.26
   4   5  -4    3.63    0.22
   4   5  -4    4.23    0.23
  -4  -5   4    3.54    0.22
  -4  -5   4    3.66    0.22
   3   5  -4    3.18    0.20
   3   5  -4    3.34    0.18
   3   5  -4    3.20    0.17
   3   5  -4    3.10    0.19
   3   5  -4    3.15    0.18
   3   5  -4    3.04    0.21
   3   5  -4    3.41    0.13
   3   5  -4    2.92    0.22
  -3  -5   4    2.92    0.17
  -3  -5   4    3.12    0.16
  -3  -5   4    3.18    0.17
  -3  -5   4    2.90    0.19
  -3  -5   4    3.09    0.18
   2   5  -4   15.17    0.52
   2   5  -4   15.08    0.46
   2   5  -4   15.09    0.51
   2   5  -4   14.99    0.46
   2   5  -4   15.41    0.35
   2   5  -4   15.09    0.42
   2   5  -4   15.71    0.35
   2   5  -4   14.92    0.43
   2   5  -4   15.05    0.44
   2   5  -4   15.72    0.44
  -2  -5   4   15.35    0.44
  -2  -5   4   15.53    0.39
  -2  -5   4   14.84    0.45
  -2  -5   4   14.59    0.43
  -2  -5   4   14.91    0.43
   1   5  -4   31.77    0.97
   1   5  -4   32.69    0.80
   1   5  -4   31.24    0.83
   1   5  -4   30.87    0.86
   1   5  -4   30.37    0.98
   1   5  -4   32.00    0.80
   1   5  -4   32.18    0.82
   1   5  -4   33.14    0.87
  -1  -5   4   31.53    0.83
  -1  -5   4   31.29    0.80
  -1  -5   4   33.41    0.81
  -1  -5   4   32.93    0.80
  -1  -5   4   31.60    0.73
  -1  -5   4   31.65    0.86
  -1  -5   4   31.70    0.73
   0   5  -4   11.80    0.31
   0   5  -4   12.17    0.33
   0   5  -4   12.06    0.36
   0   5  -4   12.09    0.32
   0   5  -4   12.07    0.39
   0   5  -4   12.66    0.41
   0   5  -4   11.29    0.36
   0  -5   4   11.91    0.29
   0  -5   4   12.18    0.35
   0  -5   4   11.89    0.29
   0  -5   4   12.08    0.33
   0  -5   4   11.03    0.33
   0  -5   4   12.27    0.31
   0  -5   4   12.21    0.34
   0  -5   4   11.71    0.33
   0  -5   4   12.43    0.35
  -1   5  -4    0.71    0.06
  -1   5  -4    0.72    0.09
  -1   5  -4    0.69    0.07
  -1   5  -4    0.72    0.08
  -1   5  -4    0.51    0.09
  -1   5  -4    0.62    0.07
  -1   5  -4    0.58    0.07
   1  -5   4    0.72    0.06
   1  -5   4    0.66    0.08
   1  -5   4    0.59    0.07
   1  -5   4    0.61    0.06
   1  -5   4    0.83    0.07
   1  -5   4    0.66    0.07
   1  -5   4    0.71    0.04
   1  -5   4    0.72    0.07
  -2   5  -4    9.53    0.24
  -2   5  -4   10.21    0.31
  -2   5  -4    9.64    0.32
  -2   5  -4    9.25    0.37
  -2   5  -4    9.86    0.37
  -2   5  -4    9.43    0.30
  -2   5  -4    9.66    0.32
  -2   5  -4    9.72    0.24
  -2   5  -4    9.89    0.30
   2  -5   4    9.47    0.30
   2  -5   4    9.44    0.29
   2  -5   4    9.58    0.31
   2  -5   4    9.71    0.27
   2  -5   4    9.62    0.30
   2  -5   4    9.40    0.27
   2  -5   4    9.92    0.24
  -3   5  -4   20.30    0.69
  -3   5  -4   19.64    0.68
  -3   5  -4   18.92    0.57
  -3   5  -4   19.18    0.55
  -3   5  -4   20.06    0.61
  -3   5  -4   20.49    0.61
  -3   5  -4   20.22    0.48
   3  -5   4   19.32    0.59
   3  -5   4   19.34    0.51
   3  -5   4   20.42    0.51
   3  -5   4   18.88    0.56
   3  -5   4   20.41    0.57
   3  -5   4   18.38    0.53
   3  -5   4   18.95    0.46
  -4   5  -4    0.69    0.13
  -4   5  -4    0.61    0.13
  -4   5  -4    0.84    0.16
   4  -5   4    0.57    0.10
   4  -5   4    0.73    0.13
   4  -5   4    0.47    0.13
  -5   5  -4    0.00    0.15
   5  -5   4    0.14    0.15
   5  -5   4    0.32    0.11
   5   4  -4    0.79    0.17
   5   4  -4    1.31    0.18
  -5  -4   4    1.18    0.17
   4   4  -4   -0.09    0.14
   4   4  -4    0.01    0.10
   4   4  -4   -0.08    0.10
   4   4  -4   -0.04    0.12
   4   4  -4    0.04    0.11
  -4  -4   4    0.07    0.11
  -4  -4   4    0.00    0.10
  -4  -4   4    0.00    0.11
   3   4  -4    9.61    0.31
   3   4  -4    9.82    0.33
   3   4  -4    9.96    0.26
   3   4  -4   10.39    0.26
   3   4  -4    9.62    0.33
   3   4  -4    9.86    0.35
   3   4  -4    9.89    0.40
   3   4  -4    9.32    0.34
   3   4  -4   10.50    0.34
   3   4  -4    9.69    0.34
  -3  -4   4    9.83    0.34
  -3  -4   4   10.03    0.29
  -3  -4   4    9.87    0.33
  -3  -4   4    9.50    0.33
  -3  -4   4    9.73    0.32
   2   4  -4   27.96    0.73
   2   4  -4   28.84    0.74
   2   4  -4   28.20    0.77
   2   4  -4   28.23    0.63
   2   4  -4   28.43    0.78
   2   4  -4   29.08    0.74
   2   4  -4   27.21    0.77
   2   4  -4   27.53    0.63
   2   4  -4   28.49    0.88
   2   4  -4   28.32    0.72
  -2  -4   4   27.48    0.74
  -2  -4   4   28.05    0.66
  -2  -4   4   28.69    0.73
  -2  -4   4   27.96    0.72
  -2  -4   4   28.62    0.77
   1   4  -4    6.34    0.25
   1   4  -4    6.66    0.21
   1   4  -4    6.71    0.21
   1   4  -4    6.61    0.19
   1   4  -4    6.33    0.20
   1   4  -4    6.39    0.20
   1   4  -4    6.67    0.23
  -1  -4   4    6.54    0.17
  -1  -4   4    6.47    0.20
  -1  -4   4    6.56    0.21
  -1  -4   4    6.34    0.20
  -1  -4   4    6.66    0.20
  -1  -4   4    6.64    0.20
  -1  -4   4    6.65    0.20
  -1  -4   4    6.61    0.20
  -1  -4   4    6.71    0.18
   0   4  -4   11.21    0.29
   0   4  -4   11.16    0.36
   0   4  -4   11.52    0.32
   0   4  -4   11.06    0.29
   0   4  -4   10.96    0.35
   0   4  -4   10.82    0.30
   0   4  -4   11.48    0.32
   0   4  -4   11.18    0.32
   0  -4   4   11.31    0.30
   0  -4   4   11.23    0.31
   0  -4   4   11.27    0.29
   0  -4   4   11.16    0.26
   0  -4   4   11.23    0.26
   0  -4   4   11.27    0.31
   0  -4   4   10.77    0.30
   0  -4   4   11.06    0.32
   0  -4   4   11.17    0.30
  -1   4  -4   68.64    1.96
  -1   4  -4   66.27    1.66
  -1   4  -4   67.59    1.66
  -1   4  -4   65.16    1.96
  -1   4  -4   67.29    1.73
  -1   4  -4   66.56    1.62
  -1   4  -4   67.83    1.73
   1  -4   4   66.64    1.66
   1  -4   4   67.23    1.63
   1  -4   4   67.84    1.49
   1  -4   4   65.23    1.73
   1  -4   4   66.10    1.49
   1  -4   4   66.68    1.63
   1  -4   4   67.66    1.73
   1  -4   4   66.66    1.56
  -2   4  -4   36.30    0.94
  -2   4  -4   36.07    1.01
  -2   4  -4   38.03    1.01
  -2   4  -4   37.32    0.96
  -2   4  -4   37.61    1.15
  -2   4  -4   37.29    0.84
  -2   4  -4   37.27    0.96
  -2   4  -4   37.70    1.14
  -2   4  -4   37.51    0.84
   2  -4   4   37.09    0.80
   2  -4   4   38.25    0.91
   2  -4   4   36.54    0.96
   2  -4   4   37.94    0.89
   2  -4   4   36.32    0.86
   2  -4   4   37.43    0.95
   2  -4   4   38.51    1.00
   2  -4   4   36.35    0.86
  -3   4  -4   33.92    0.97
  -3   4  -4   35.33    1.10
  -3   4  -4   34.89    0.80
  -3   4  -4   35.35    0.93
  -3   4  -4   34.70    0.91
  -3   4  -4   34.44    0.93
  -3   4  -4   34.87    0.97
  -3   4  -4   34.37    1.11
   3  -4   4   35.10    0.85
   3  -4   4   33.74    0.87
   3  -4   4   33.75    0.83
   3  -4   4   34.00    0.77
   3  -4   4   34.20    0.91
   3  -4   4   34.97    0.93
   3  -4   4   35.81    0.97
  -4   4  -4    1.34    0.16
  -4   4  -4    1.00    0.15
  -4   4  -4    1.18    0.15
   4  -4   4    1.21    0.15
   4  -4   4    1.20    0.11
   4  -4   4    0.99    0.15
   4  -4   4    1.15    0.14
  -5   4  -4    0.71    0.16
  -5   4  -4    0.70    0.16
   5  -4   4    0.69    0.12
   5  -4   4    0.46    0.16
   5   3  -4    4.06    0.26
   5   3  -4    3.91    0.26
  -5  -3   4    3.55    0.25
  -5  -3   4    4.01    0.26
   4   3  -4    2.27    0.22
   4   3  -4    2.33    0.18
   4   3  -4    2.43    0.19
   4   3  -4    1.99    0.18
   4   3  -4    2.22    0.13
  -4  -3   4    2.53    0.17
  -4  -3   4    1.92    0.16
  -4  -3   4    2.24    0.17
   3   3  -4    3.21    0.12
   3   3  -4    3.02    0.16
   3   3  -4    3.35    0.19
   3   3  -4    3.22    0.17
   3   3  -4    3.09    0.16
   3   3  -4    2.62    0.16
   3   3  -4    3.01    0.21
   3   3  -4    3.23    0.12
   3   3  -4    3.16    0.18
  -3  -3   4    3.23    0.14
  -3  -3   4    3.03    0.16
  -3  -3   4    3.16    0.18
  -3  -3   4    2.97    0.17
  -3  -3   4    3.04    0.16
   2   3  -4    5.03    0.18
   2   3  -4    4.93    0.13
   2   3  -4    5.04    0.19
   2   3  -4    5.15    0.24
   2   3  -4    5.07    0.19
   2   3  -4    5.02    0.18
   2   3  -4    5.23    0.18
   2   3  -4    5.12    0.22
   2   3  -4    4.90    0.17
   2   3  -4    5.13    0.13
  -2  -3   4    4.89    0.18
  -2  -3   4    4.95    0.18
  -2  -3   4    5.05    0.19
  -2  -3   4    5.10    0.18
  -2  -3   4    5.06    0.18
  -2  -3   4    5.19    0.15
  -2  -3   4    5.09    0.13
   1   3  -4   24.31    0.69
   1   3  -4   27.34    0.83
   1   3  -4   27.70    0.70
   1   3  -4   28.34    0.67
   1   3  -4   27.35    0.73
   1   3  -4   30.19    0.82
   1   3  -4   27.20    0.68
   1   3  -4   27.59    0.73
   1   3  -4   27.27    0.69
  -1  -3   4   27.60    0.68
  -1  -3   4   28.36    0.62
  -1  -3   4   27.95    0.69
  -1  -3   4   26.80    0.72
  -1  -3   4   27.14    0.70
  -1  -3   4   28.28    0.68
  -1  -3   4   27.13    0.72
  -1  -3   4   27.88    0.69
  -1  -3   4   27.86    0.62
   0   3  -4   89.47    2.60
   0   3  -4   89.72    2.21
   0   3  -4   89.80    2.20
   0   3  -4   89.45    2.30
   0   3  -4   88.78    2.30
   0   3  -4   93.34    2.60
   0  -3   4   89.67    2.29
   0  -3   4   91.43    2.29
   0  -3   4   89.49    2.17
   0  -3   4   90.81    2.21
   0  -3   4   88.18    2.16
   0  -3   4   89.82    2.20
   0  -3   4   94.38    2.15
  -1   3  -4   14.99    0.40
  -1   3  -4   14.89    0.42
  -1   3  -4   15.37    0.40
  -1   3  -4   15.03    0.47
  -1   3  -4   15.18    0.48
  -1   3  -4   15.07    0.39
  -1   3  -4   15.01    0.42
   1  -3   4   15.53    0.39
   1  -3   4   15.53    0.39
   1  -3   4   15.38    0.37
   1  -3   4   14.85    0.36
   1  -3   4   14.88    0.39
   1  -3   4   15.56    0.42
   1  -3   4   14.87    0.42
   1  -3   4   15.20    0.40
   1  -3   4   15.16    0.40
   1  -3   4   15.22    0.36
  -2   3  -4    4.06    0.16
  -2   3  -4    4.02    0.17
  -2   3  -4    3.99    0.12
  -2   3  -4    4.99    0.22
  -2   3  -4    4.13    0.17
  -2   3  -4    4.41    0.13
  -2   3  -4    4.01    0.16
  -2   3  -4    4.24    0.21
  -2   3  -4    4.16    0.18
  -2   3  -4    3.96    0.18
   2  -3   4    4.13    0.17
   2  -3   4    4.06    0.17
   2  -3   4    4.03    0.14
   2  -3   4    4.26    0.13
   2  -3   4    3.95    0.17
   2  -3   4    4.16    0.15
   2  -3   4    4.29    0.13
   2  -3   4    4.26    0.17
  -3   3  -4   40.94    0.94
  -3   3  -4   39.75    1.07
  -3   3  -4   40.80    1.28
  -3   3  -4   40.27    1.13
  -3   3  -4   40.78    1.12
  -3   3  -4   40.96    1.05
  -3   3  -4   41.20    0.94
  -3   3  -4   40.53    1.27
  -3   3  -4   40.90    1.07
   3  -3   4   39.82    1.00
   3  -3   4   42.26    1.01
   3  -3   4   39.44    1.05
   3  -3   4   42.11    1.12
   3  -3   4   40.34    0.96
   3  -3   4   40.02    1.07
   3  -3   4   41.03    0.89
  -4   3  -4    1.54    0.16
  -4   3  -4    1.95    0.18
  -4   3  -4    1.19    0.15
   4  -3   4    1.83    0.16
   4  -3   4    1.52    0.16
   4  -3   4    1.96    0.17
   4  -3   4    1.68    0.12
  -5   3  -4    0.33    0.15
  -5   3  -4    0.13    0.15
   5  -3   4    0.20    0.10
   5  -3   4    0.15    0.15
   5   2  -4    3.10    0.22
   5   2  -4    3.11    0.24
  -5  -2   4    3.38    0.25
  -5  -2   4    3.16    0.23
   4   2  -4    0.87    0.14
   4   2  -4    0.94    0.13
   4   2  -4    0.98    0.09
   4   2  -4    1.11    0.18
   4   2  -4    0.94    0.13
  -4  -2   4    0.83    0.13
  -4  -2   4    0.99    0.13
  -4  -2   4    0.95    0.13
   3   2  -4    4.62    0.20
   3   2  -4    4.50    0.19
   3   2  -4    4.09    0.19
   3   2  -4    4.26    0.24
   3   2  -4    4.44    0.19
   3   2  -4    4.42    0.19
   3   2  -4    4.34    0.15
   3   2  -4    4.51    0.21
  -3  -2   4    4.01    0.20
  -3  -2   4    4.58    0.19
  -3  -2   4    4.20    0.19
  -3  -2   4    4.33    0.19
  -3  -2   4    4.33    0.16
  -3  -2   4    4.52    0.19
   2   2  -4   33.22    1.02
   2   2  -4   33.95    1.02
   2   2  -4   33.35    0.75
   2   2  -4   34.42    0.85
   2   2  -4   35.16    1.03
   2   2  -4   32.75    0.86
   2   2  -4   33.78    0.90
   2   2  -4   34.04    0.86
   2   2  -4   33.80    0.91
   2   2  -4   33.54    0.75
   2   2  -4   34.34    0.87
  -2  -2   4   33.22    0.71
  -2  -2   4   33.32    0.90
  -2  -2   4   33.41    0.77
  -2  -2   4   34.73    0.87
  -2  -2   4   34.73    0.90
  -2  -2   4   33.33    0.85
  -2  -2   4   34.82    0.85
  -2  -2   4   32.99    0.86
   1   2  -4   49.39    1.22
   1   2  -4   50.64    1.23
   1   2  -4   49.34    1.45
   1   2  -4   48.59    1.28
   1   2  -4   50.16    1.29
   1   2  -4   51.04    1.23
   1   2  -4   50.30    1.20
   1   2  -4   49.10    1.45
  -1  -2   4   50.70    1.23
  -1  -2   4   50.61    1.10
  -1  -2   4   50.03    1.28
  -1  -2   4   50.04    1.22
  -1  -2   4   49.00    1.10
  -1  -2   4   50.44    1.28
  -1  -2   4   49.97    1.21
  -1  -2   4   49.95    1.21
  -1  -2   4   50.40    1.23
   0   2  -4    2.88    0.09
   0   2  -4    2.64    0.09
   0   2  -4    2.89    0.09
   0   2  -4    2.88    0.08
   0  -2   4    2.97    0.10
   0  -2   4    2.90    0.08
   0  -2   4    2.87    0.08
   0  -2   4    2.92    0.08
   0  -2   4    2.75    0.08
  -1   2  -4    5.70    0.17
  -1   2  -4    5.80    0.21
  -1   2  -4    5.69    0.18
  -1   2  -4    5.48    0.18
  -1   2  -4    5.63    0.17
  -1   2  -4    5.55    0.17
   1  -2   4    5.75    0.15
   1  -2   4    5.58    0.17
   1  -2   4    5.57    0.15
   1  -2   4    5.53    0.17
   1  -2   4    5.45    0.18
   1  -2   4    5.69    0.18
   1  -2   4    5.76    0.17
   1  -2   4    5.84    0.17
   1  -2   4    5.75    0.16
   1  -2   4    5.90    0.17
  -2   2  -4   17.70    0.49
  -2   2  -4   18.22    0.53
  -2   2  -4   18.56    0.60
  -2   2  -4   17.92    0.50
  -2   2  -4   18.73    0.50
  -2   2  -4   17.68    0.60
  -2   2  -4   18.42    0.43
  -2   2  -4   17.99    0.60
  -2   2  -4   18.15    0.43
  -2   2  -4   18.30    0.47
  -2   2  -4   18.38    0.53
   2  -2   4   18.75    0.52
   2  -2   4   18.45    0.47
   2  -2   4   18.20    0.47
   2  -2   4   18.22    0.45
   2  -2   4   18.65    0.52
   2  -2   4   17.82    0.50
   2  -2   4   17.80    0.49
   2  -2   4   18.22    0.41
  -3   2  -4    0.18    0.07
  -3   2  -4    0.17    0.09
  -3   2  -4    0.20    0.11
  -3   2  -4    0.16    0.09
  -3   2  -4    0.16    0.09
  -3   2  -4    0.20    0.11
  -3   2  -4    0.27    0.06
  -3   2  -4    0.20    0.09
  -3   2  -4    0.33    0.09
   3  -2   4    0.10    0.06
   3  -2   4    0.29    0.09
   3  -2   4    0.25    0.09
   3  -2   4    0.27    0.07
   3  -2   4    0.14    0.08
   3  -2   4    0.20    0.09
   3  -2   4    0.15    0.07
  -4   2  -4    3.51    0.21
  -4   2  -4    3.30    0.20
  -4   2  -4    3.36    0.24
   4  -2   4    3.15    0.22
   4  -2   4    3.33    0.16
   4  -2   4    3.30    0.22
  -5   2  -4    0.83    0.17
  -5   2  -4    1.02    0.18
   5  -2   4    0.94    0.13
   5  -2   4    0.84    0.16
   5   1  -4    0.07    0.13
   5   1  -4    0.15    0.13
  -5  -1   4    0.13    0.12
  -5  -1   4   -0.02    0.13
   4   1  -4    0.35    0.11
   4   1  -4    0.39    0.08
   4   1  -4    0.50    0.11
   4   1  -4    0.35    0.11
   4   1  -4    0.28    0.15
  -4  -1   4    0.33    0.10
  -4  -1   4    0.40    0.11
  -4  -1   4    0.51    0.10
   3   1  -4    9.17    0.36
   3   1  -4    8.98    0.35
   3   1  -4    7.97    0.30
   3   1  -4    8.94    0.28
   3   1  -4    8.79    0.35
   3   1  -4    9.11    0.31
   3   1  -4    8.50    0.28
   3   1  -4    8.85    0.24
   3   1  -4    8.36    0.28
   3   1  -4    9.41    0.29
  -3  -1   4    8.70    0.29
  -3  -1   4    8.64    0.25
  -3  -1   4    8.99    0.30
  -3  -1   4    8.47    0.29
  -3  -1   4    9.12    0.28
  -3  -1   4    8.31    0.28
   2   1  -4   17.84    0.49
   2   1  -4   17.37    0.46
   2   1  -4   17.48    0.46
   2   1  -4   17.39    0.55
   2   1  -4   17.72    0.45
   2   1  -4   17.14    0.47
   2   1  -4   17.40    0.55
   2   1  -4   17.39    0.39
   2   1  -4   17.46    0.49
  -2  -1   4   17.28    0.46
  -2  -1   4   16.70    0.45
  -2  -1   4   16.98    0.46
  -2  -1   4   17.37    0.45
  -2  -1   4   17.05    0.41
  -2  -1   4   17.50    0.48
  -2  -1   4   17.27    0.48
  -2  -1   4   17.10    0.37
   1   1  -4    0.04    0.02
   1   1  -4    0.02    0.03
   1   1  -4    0.00    0.04
   1   1  -4    0.05    0.03
   1   1  -4    0.04    0.03
   1   1  -4    0.03    0.03
   1   1  -4    0.00    0.02
   1   1  -4   -0.03    0.03
   1   1  -4    0.04    0.03
   1   1  -4   -0.03    0.01
  -1  -1   4   -0.01    0.04
  -1  -1   4    0.01    0.03
  -1  -1   4    0.06    0.03
  -1  -1   4    0.05    0.03
  -1  -1   4    0.04    0.03
  -1  -1   4    0.00    0.03
  -1  -1   4    0.03    0.03
   0   1  -4   12.52    0.33
   0   1  -4   13.22    0.34
   0   1  -4   13.15    0.34
   0   1  -4   13.15    0.32
   0   1  -4   13.17    0.34
   0  -1   4   13.06    0.32
   0  -1   4   12.97    0.32
   0  -1   4   12.84    0.32
   0  -1   4   12.68    0.32
  -1   1  -4  150.00    3.59
  -1   1  -4  145.71    3.34
  -1   1  -4  148.43    3.52
  -1   1  -4  146.02    4.25
  -1   1  -4  147.56    3.75
  -1   1  -4  145.45    3.59
  -1   1  -4  146.40    3.75
   1  -1   4  143.28    3.23
   1  -1   4  144.41    3.52
   1  -1   4  147.47    3.74
   1  -1   4  148.12    3.74
   1  -1   4  151.84    3.52
   1  -1   4  143.42    3.59
   1  -1   4  147.54    3.34
   1  -1   4  149.00    3.23
   1  -1   4  146.75    3.59
   1  -1   4  150.11    3.74
   1  -1   4  143.61    3.50
  -2   1  -4    0.58    0.08
  -2   1  -4    0.62    0.10
  -2   1  -4    0.49    0.07
  -2   1  -4    0.52    0.05
  -2   1  -4    0.59    0.07
  -2   1  -4    0.48    0.08
  -2   1  -4    0.53    0.07
  -2   1  -4    0.63    0.08
  -2   1  -4    0.60    0.05
   2  -1   4    0.72    0.07
   2  -1   4    0.57    0.08
   2  -1   4    0.46    0.07
   2  -1   4    0.59    0.06
   2  -1   4    0.55    0.07
   2  -1   4    0.55    0.05
   2  -1   4    0.53    0.07
   2  -1   4    0.67    0.08
  -3   1  -4    5.27    0.18
  -3   1  -4    5.12    0.23
  -3   1  -4    5.46    0.22
  -3   1  -4    5.36    0.18
  -3   1  -4    5.03    0.29
  -3   1  -4    5.30    0.21
  -3   1  -4    5.12    0.22
  -3   1  -4    5.57    0.25
  -3   1  -4    5.38    0.27
  -3   1  -4    5.22    0.24
   3  -1   4    4.99    0.19
   3  -1   4    5.19    0.17
   3  -1   4    5.11    0.23
   3  -1   4    4.87    0.22
   3  -1   4    5.26    0.23
   3  -1   4    5.39    0.20
  -4   1  -4    4.43    0.23
  -4   1  -4    3.89    0.22
  -4   1  -4    4.26    0.25
   4  -1   4    3.92    0.20
   4  -1   4    4.13    0.18
   4  -1   4    4.17    0.23
   4  -1   4    4.02    0.23
  -5   1  -4    2.85    0.23
  -5   1  -4    2.37    0.22
   5  -1   4    2.32    0.22
   5  -1   4    2.40    0.16
   5   0  -4    0.72    0.14
   5   0  -4    0.68    0.15
  -5   0   4    0.77    0.15
  -5   0   4    0.50    0.14
   4   0  -4    8.46    0.30
   4   0  -4    8.19    0.32
   4   0  -4    8.38    0.25
   4   0  -4    8.21    0.37
   4   0  -4    8.35    0.32
   4   0  -4    8.24    0.31
  -4   0   4    8.17    0.31
  -4   0   4    8.44    0.30
  -4   0   4    7.80    0.30
  -4   0   4    8.19    0.27
   3   0  -4    4.35    0.24
   3   0  -4    4.02    0.19
   3   0  -4    4.28    0.22
   3   0  -4    4.47    0.19
   3   0  -4    4.31    0.18
   3   0  -4    5.48    0.20
   3   0  -4    4.40    0.19
   3   0  -4    4.46    0.15
   3   0  -4    4.31    0.20
  -3   0   4    4.59    0.17
  -3   0   4    4.54    0.20
  -3   0   4    4.58    0.18
  -3   0   4    4.50    0.19
  -3   0   4    4.11    0.18
  -3   0   4    4.37    0.18
  -3   0   4    4.52    0.20
   2   0  -4    6.92    0.22
   2   0  -4    6.99    0.21
   2   0  -4    6.87    0.22
   2   0  -4    6.77    0.22
   2   0  -4    6.87    0.17
   2   0  -4    7.12    0.26
   2   0  -4    6.90    0.21
   2   0  -4    6.70    0.26
   2   0  -4    6.57    0.23
  -2   0   4    6.81    0.16
  -2   0   4    6.69    0.20
  -2   0   4    6.60    0.21
  -2   0   4    6.81    0.22
  -2   0   4    6.67    0.19
  -2   0   4    6.83    0.22
  -2   0   4    6.70    0.22
  -2   0   4    6.91    0.21
  -2   0   4    6.93    0.21
   1   0  -4   50.54    1.27
   1   0  -4   51.38    1.32
   1   0  -4   50.75    1.50
   1   0  -4   52.06    1.32
   1   0  -4   50.81    1.24
   1   0  -4   50.69    1.50
   1   0  -4   50.10    1.24
  -1   0   4   50.63    1.24
  -1   0   4   52.32    1.24
  -1   0   4   51.19    1.27
  -1   0   4   52.27    1.27
  -1   0   4   52.44    1.32
  -1   0   4   53.62    1.32
  -1   0   4   50.78    1.13
   0   0  -4  121.65    3.17
   0   0  -4  125.51    2.95
   0   0  -4  115.49    3.03
   0   0  -4  125.90    3.57
   0   0  -4  128.37    3.02
   0   0  -4  125.95    3.15
   0   0  -4  130.78    3.58
   0   0  -4  107.83    2.95
   0   0   4  127.41    3.15
   0   0   4  123.31    3.02
   0   0   4  128.75    2.80
   0   0   4  122.11    2.97
   0   0   4  124.18    3.03
   0   0   4  125.77    2.97
   0   0   4  125.34    3.14
  -1   0  -4   53.15    1.58
  -1   0  -4   52.75    1.58
  -1   0  -4   53.45    1.24
  -1   0  -4   54.65    1.39
  -1   0  -4   52.52    1.33
  -1   0  -4   54.35    1.34
  -1   0  -4   52.56    1.39
  -1   0  -4   53.83    1.18
  -1   0  -4   53.73    1.31
  -1   0  -4   53.75    1.18
   1   0   4   53.17    1.20
   1   0   4   54.43    1.33
   1   0   4   54.88    1.39
   1   0   4   53.72    1.11
   1   0   4   54.18    1.11
   1   0   4   50.58    1.31
   1   0   4   54.73    1.24
   1   0   4   55.64    1.31
   1   0   4   52.29    1.31
   1   0   4   53.35    1.33
   1   0   4   53.70    1.39
  -2   0  -4   26.69    0.72
  -2   0  -4   26.56    0.63
  -2   0  -4   25.73    0.60
  -2   0  -4   25.07    0.72
  -2   0  -4   25.39    0.81
  -2   0  -4   25.98    0.69
  -2   0  -4   25.89    0.60
  -2   0  -4   26.01    0.67
  -2   0  -4   26.00    0.68
   2   0   4   25.90    0.66
   2   0   4   25.71    0.61
   2   0   4   25.49    0.71
   2   0   4   24.70    0.68
   2   0   4   25.47    0.71
   2   0   4   25.08    0.67
   2   0   4   25.06    0.56
   2   0   4   25.93    0.71
  -3   0  -4   27.93    0.71
  -3   0  -4   28.55    0.67
  -3   0  -4   28.76    0.81
  -3   0  -4   27.68    0.75
  -3   0  -4   29.28    0.81
  -3   0  -4   28.38    0.92
  -3   0  -4   27.32    0.77
  -3   0  -4   27.66    0.91
  -3   0  -4   24.83    0.91
  -3   0  -4   27.63    0.67
   3   0   4   27.09    0.75
   3   0   4   29.18    0.81
   3   0   4   28.51    0.80
   3   0   4   28.56    0.77
   3   0   4   28.40    0.63
   3   0   4   27.34    0.69
   3   0   4   28.53    0.73
  -4   0  -4    1.64    0.16
  -4   0  -4    1.31    0.15
   4   0   4    1.53    0.16
   4   0   4    1.33    0.11
   4   0   4    1.29    0.15
  -5   0  -4    0.07    0.15
  -5   0  -4    0.24    0.15
   5   0   4    0.21    0.16
   5   0   4    0.24    0.11
   5  -1  -4    2.46    0.20
   5  -1  -4    2.59    0.21
  -5   1   4    2.34    0.20
  -5   1   4    2.69    0.21
   4  -1  -4    1.41    0.11
   4  -1  -4    1.23    0.13
   4  -1  -4    1.07    0.14
   4  -1  -4    1.27    0.17
   4  -1  -4    1.40    0.14
  -4   1   4    0.92    0.13
  -4   1   4    1.11    0.12
  -4   1   4    1.15    0.11
  -4   1   4    1.22    0.12
  -4   1   4    1.19    0.14
   3  -1  -4    5.11    0.16
   3  -1  -4    4.90    0.25
   3  -1  -4    4.85    0.24
   3  -1  -4    5.09    0.20
   3  -1  -4    4.88    0.21
   3  -1  -4    4.95    0.20
   3  -1  -4    4.97    0.21
   3  -1  -4    5.16    0.22
   3  -1  -4    4.97    0.20
  -3   1   4    5.06    0.21
  -3   1   4    4.99    0.19
  -3   1   4    5.18    0.18
  -3   1   4    4.68    0.20
  -3   1   4    4.89    0.20
  -3   1   4    4.92    0.17
  -3   1   4    5.09    0.20
  -3   1   4    5.03    0.21
   2  -1  -4   40.91    1.23
   2  -1  -4   41.25    1.04
   2  -1  -4   41.21    1.09
   2  -1  -4   41.86    1.04
   2  -1  -4   41.06    0.92
   2  -1  -4   41.66    1.09
   2  -1  -4   40.49    1.02
   2  -1  -4   41.27    1.23
  -2   1   4   40.24    1.02
  -2   1   4   41.68    0.96
  -2   1   4   41.25    1.08
  -2   1   4   39.95    1.04
  -2   1   4   40.41    0.93
  -2   1   4   41.20    1.02
  -2   1   4   40.65    1.08
   1  -1  -4   66.14    1.94
   1  -1  -4   64.78    1.95
   1  -1  -4   65.38    1.61
   1  -1  -4   66.45    1.64
   1  -1  -4   65.95    1.72
   1  -1  -4   68.43    1.72
   1  -1  -4   67.52    1.64
  -1   1   4   66.91    1.71
  -1   1   4   66.56    1.72
  -1   1   4   66.42    1.64
  -1   1   4   68.00    1.52
  -1   1   4   67.30    1.64
  -1   1   4   65.96    1.48
  -1   1   4   66.83    1.61
  -1   1   4   66.91    1.47
  -1   1   4   67.42    1.61
   0  -1  -4    0.02    0.03
   0  -1  -4   -0.02    0.07
   0  -1  -4   -0.05    0.03
   0  -1  -4   -0.04    0.04
   0  -1  -4   -0.02    0.04
   0  -1  -4    0.16    0.06
   0  -1  -4    0.04    0.04
   0  -1  -4    0.02    0.05
   0  -1  -4   -0.02    0.02
   0   1   4   -0.02    0.04
   0   1   4    0.01    0.03
   0   1   4    0.08    0.05
   0   1   4    0.01    0.04
   0   1   4   -0.08    0.03
   0   1   4    0.03    0.04
   0   1   4    0.10    0.05
  -1  -1  -4   76.98    1.91
  -1  -1  -4   78.36    2.00
  -1  -1  -4   76.62    1.99
  -1  -1  -4   76.66    1.70
  -1  -1  -4   78.10    1.91
  -1  -1  -4   77.76    1.70
  -1  -1  -4   77.41    2.26
  -1  -1  -4   76.21    1.87
  -1  -1  -4   75.88    2.27
  -1  -1  -4   78.44    1.77
   1   1   4   77.37    1.91
   1   1   4   75.38    1.88
   1   1   4   79.01    1.87
   1   1   4   76.38    1.60
   1   1   4   75.67    1.60
   1   1   4   75.52    1.99
   1   1   4   77.76    1.87
   1   1   4   77.93    1.99
   1   1   4   77.63    1.91
   1   1   4   77.21    1.72
  -2  -1  -4    4.80    0.19
  -2  -1  -4    5.28    0.24
  -2  -1  -4    5.14    0.20
  -2  -1  -4    4.93    0.15
  -2  -1  -4    4.81    0.21
  -2  -1  -4    5.14    0.18
  -2  -1  -4    4.96    0.21
  -2  -1  -4    4.48    0.19
  -2  -1  -4    5.05    0.16
   2   1   4    4.93    0.19
   2   1   4    4.88    0.19
   2   1   4    4.93    0.20
   2   1   4    4.87    0.19
   2   1   4    4.88    0.15
   2   1   4    4.82    0.17
   2   1   4    4.81    0.19
  -3  -1  -4    1.92    0.16
  -3  -1  -4    1.78    0.18
  -3  -1  -4    1.91    0.12
  -3  -1  -4    2.06    0.16
  -3  -1  -4    1.69    0.14
  -3  -1  -4    1.93    0.13
  -3  -1  -4    2.00    0.17
   3   1   4    1.76    0.15
   3   1   4    1.88    0.15
   3   1   4    1.84    0.13
   3   1   4    1.78    0.15
   3   1   4    1.86    0.12
   3   1   4    1.97    0.15
  -4  -1  -4    0.69    0.14
  -4  -1  -4    0.77    0.14
   4   1   4    0.59    0.14
   4   1   4    0.52    0.09
   4   1   4    0.46    0.14
  -5  -1  -4    1.11    0.18
  -5  -1  -4    0.85    0.18
   5   1   4    0.93    0.13
   5   1   4    1.23    0.19
   5  -2  -4   -0.05    0.13
   5  -2  -4   -0.01    0.13
  -5   2   4    0.09    0.13
  -5   2   4    0.10    0.13
   4  -2  -4    2.28    0.14
   4  -2  -4    2.35    0.17
   4  -2  -4    2.04    0.17
   4  -2  -4    2.17    0.18
   4  -2  -4    2.44    0.21
  -4   2   4    2.13    0.15
  -4   2   4    2.28    0.16
  -4   2   4    1.99    0.14
  -4   2   4    2.20    0.17
  -4   2   4    2.19    0.18
   3  -2  -4   20.16    0.58
   3  -2  -4   19.75    0.48
   3  -2  -4   19.07    0.54
   3  -2  -4   19.32    0.55
   3  -2  -4   19.33    0.65
   3  -2  -4   20.10    0.55
   3  -2  -4   19.12    0.65
   3  -2  -4   19.76    0.58
  -3   2   4   19.27    0.54
  -3   2   4   19.70    0.54
  -3   2   4   19.93    0.49
  -3   2   4   19.27    0.49
  -3   2   4   19.87    0.58
  -3   2   4   19.73    0.51
  -3   2   4   19.84    0.56
  -3   2   4   19.99    0.58
   2  -2  -4   22.31    0.69
   2  -2  -4   21.82    0.57
   2  -2  -4   23.01    0.59
   2  -2  -4   21.81    0.70
   2  -2  -4   21.85    0.61
   2  -2  -4   21.75    0.53
   2  -2  -4   22.31    0.62
   2  -2  -4   21.86    0.58
   2  -2  -4   21.79    0.51
  -2   2   4   21.60    0.58
  -2   2   4   22.35    0.59
  -2   2   4   22.14    0.58
  -2   2   4   21.40    0.52
  -2   2   4   21.84    0.61
  -2   2   4   22.16    0.53
  -2   2   4   21.59    0.52
  -2   2   4   22.10    0.61
   1  -2  -4  162.72    3.63
   1  -2  -4  162.93    3.85
   1  -2  -4  158.96    3.93
   1  -2  -4  158.27    3.93
   1  -2  -4  163.78    4.65
   1  -2  -4  156.09    4.66
   1  -2  -4  158.34    4.10
   1  -2  -4  164.79    4.10
  -1   2   4  154.65    3.93
  -1   2   4  159.24    4.10
  -1   2   4  158.89    3.53
  -1   2   4  158.28    4.10
  -1   2   4  164.12    3.54
  -1   2   4  159.16    3.93
  -1   2   4  160.81    3.32
  -1   2   4  166.71    3.86
  -1   2   4  160.47    3.86
  -1   2   4  166.94    3.32
  -1   2   4  159.18    3.86
   0  -2  -4   36.26    1.08
   0  -2  -4   35.71    0.91
   0  -2  -4   36.48    0.92
   0  -2  -4   35.83    0.98
   0  -2  -4   37.51    0.95
   0  -2  -4   36.30    0.81
   0  -2  -4   35.45    0.97
   0  -2  -4   36.31    1.10
   0   2   4   34.32    0.97
   0   2   4   37.47    0.76
   0   2   4   36.52    0.82
   0   2   4   37.24    0.93
   0   2   4   35.53    0.91
   0   2   4   37.67    0.96
   0   2   4   37.46    0.94
   0   2   4   35.58    0.92
   0   2   4   36.45    0.76
  -1  -2  -4   15.49    0.45
  -1  -2  -4   15.39    0.52
  -1  -2  -4   15.28    0.50
  -1  -2  -4   15.51    0.42
  -1  -2  -4   16.19    0.45
  -1  -2  -4   15.57    0.37
  -1  -2  -4   15.54    0.45
  -1  -2  -4   15.72    0.42
  -1  -2  -4   15.41    0.43
  -1  -2  -4   15.45    0.38
   1   2   4   15.17    0.42
   1   2   4   15.39    0.39
   1   2   4   15.20    0.45
   1   2   4   15.51    0.43
   1   2   4   15.09    0.43
   1   2   4   15.53    0.34
   1   2   4   15.37    0.45
  -2  -2  -4    0.10    0.07
  -2  -2  -4    0.04    0.07
  -2  -2  -4    0.12    0.07
  -2  -2  -4    0.13    0.09
  -2  -2  -4    0.13    0.07
  -2  -2  -4    0.15    0.07
  -2  -2  -4    0.10    0.05
  -2  -2  -4    0.21    0.08
  -2  -2  -4    0.00    0.09
   2   2   4    0.18    0.05
   2   2   4    0.16    0.07
   2   2   4    0.17    0.07
   2   2   4    0.10    0.07
   2   2   4    0.10    0.07
   2   2   4    0.11    0.07
   2   2   4    0.20    0.06
  -3  -2  -4    2.49    0.16
  -3  -2  -4    2.70    0.20
  -3  -2  -4    2.81    0.20
  -3  -2  -4    2.39    0.17
  -3  -2  -4    2.97    0.15
   3   2   4    2.52    0.15
   3   2   4    2.65    0.17
   3   2   4    2.38    0.17
   3   2   4    2.44    0.18
   3   2   4    2.77    0.13
  -4  -2  -4    5.30    0.27
  -4  -2  -4    4.78    0.26
   4   2   4    5.35    0.20
   4   2   4    5.11    0.27
   4   2   4    5.70    0.29
   5  -3  -4    0.67    0.16
   5  -3  -4    0.68    0.15
  -5   3   4    0.63    0.15
  -5   3   4    0.78    0.15
   4  -3  -4    7.54    0.39
   4  -3  -4    8.13    0.30
   4  -3  -4    7.59    0.30
   4  -3  -4    8.29    0.33
  -4   3   4    8.33    0.28
  -4   3   4    7.59    0.29
  -4   3   4    8.28    0.31
  -4   3   4    7.98    0.31
   3  -3  -4    0.60    0.11
   3  -3  -4    0.46    0.09
   3  -3  -4    0.35    0.13
   3  -3  -4    0.48    0.03
   3  -3  -4    0.43    0.07
   3  -3  -4    0.42    0.08
   3  -3  -4    0.36    0.09
   3  -3  -4    0.45    0.09
   3  -3  -4    0.46    0.03
   3  -3  -4    0.67    0.10
   3  -3  -4    0.47    0.09
  -3   3   4    0.69    0.10
  -3   3   4    0.50    0.10
  -3   3   4    0.31    0.08
  -3   3   4    0.37    0.08
  -3   3   4    0.45    0.08
  -3   3   4    0.34    0.09
  -3   3   4    0.39    0.08
  -3   3   4    0.48    0.09
   2  -3  -4    8.00    0.31
   2  -3  -4    7.65    0.27
   2  -3  -4    7.67    0.25
   2  -3  -4    7.43    0.22
   2  -3  -4    7.86    0.24
   2  -3  -4    7.60    0.27
   2  -3  -4    7.68    0.21
   2  -3  -4    7.62    0.30
   2  -3  -4    8.30    0.26
  -2   3   4    7.85    0.26
  -2   3   4    7.51    0.26
  -2   3   4    7.77    0.22
  -2   3   4    7.73    0.22
  -2   3   4    7.55    0.22
  -2   3   4    7.66    0.25
  -2   3   4    8.03    0.26
  -2   3   4    7.92    0.25
   1  -3  -4   41.94    1.07
   1  -3  -4   41.66    0.97
   1  -3  -4   43.59    1.27
   1  -3  -4   42.43    0.95
   1  -3  -4   44.29    1.13
   1  -3  -4   41.39    1.27
   1  -3  -4   42.15    1.04
   1  -3  -4   42.11    1.07
   1  -3  -4   42.09    0.94
   1  -3  -4   41.96    1.12
  -1   3   4   42.23    0.89
  -1   3   4   41.03    1.07
  -1   3   4   43.01    0.89
  -1   3   4   40.50    1.07
  -1   3   4   42.09    0.96
  -1   3   4   42.51    1.05
  -1   3   4   40.87    0.96
  -1   3   4   41.85    1.11
  -1   3   4   42.27    1.12
  -1   3   4   41.82    1.26
   0  -3  -4   43.52    1.33
   0  -3  -4   43.42    1.12
   0  -3  -4   41.50    1.10
   0  -3  -4   43.40    1.18
   0  -3  -4   44.11    1.12
   0  -3  -4   43.38    1.18
   0  -3  -4   43.55    1.31
   0  -3  -4   44.10    0.98
   0  -3  -4   46.34    1.14
   0   3   4   44.97    1.16
   0   3   4   43.73    1.12
   0   3   4   42.75    1.18
   0   3   4   43.37    1.10
   0   3   4   45.01    0.92
   0   3   4   44.28    1.30
   0   3   4   43.51    1.00
   0   3   4   45.04    1.14
   0   3   4   42.97    0.92
   0   3   4   43.07    0.99
   0   3   4   45.69    1.11
  -1  -3  -4   11.07    0.39
  -1  -3  -4   11.12    0.33
  -1  -3  -4   10.94    0.28
  -1  -3  -4   10.92    0.33
  -1  -3  -4   11.14    0.41
  -1  -3  -4   10.99    0.35
  -1  -3  -4   10.60    0.34
  -1  -3  -4   10.79    0.32
   1   3   4   11.04    0.32
   1   3   4   10.78    0.34
   1   3   4   11.11    0.38
   1   3   4   10.78    0.26
   1   3   4   10.49    0.30
   1   3   4   11.05    0.33
   1   3   4   10.74    0.34
   1   3   4   10.65    0.33
   1   3   4   10.95    0.35
  -2  -3  -4   18.34    0.52
  -2  -3  -4   17.32    0.55
  -2  -3  -4   18.66    0.46
  -2  -3  -4   17.60    0.63
  -2  -3  -4   17.91    0.55
  -2  -3  -4   18.32    0.52
  -2  -3  -4   18.51    0.39
  -2  -3  -4   18.34    0.48
  -2  -3  -4   18.48    0.39
  -2  -3  -4   18.90    0.53
  -2  -3  -4   17.70    0.62
   2   3   4   18.44    0.55
   2   3   4   17.90    0.51
   2   3   4   19.51    0.53
   2   3   4   18.79    0.56
   2   3   4   18.82    0.43
   2   3   4   18.53    0.53
   2   3   4   18.24    0.47
  -3  -3  -4    6.74    0.27
  -3  -3  -4    6.47    0.29
  -3  -3  -4    6.84    0.28
  -3  -3  -4    6.52    0.23
   3   3   4    6.69    0.21
   3   3   4    6.73    0.28
   3   3   4    6.66    0.27
   3   3   4    6.29    0.24
  -4  -3  -4    0.61    0.14
  -4  -3  -4    0.87    0.15
   4   3   4    0.81    0.15
   4   3   4    0.69    0.10
   4   3   4    0.48    0.14
   5  -4  -4    1.29    0.18
   5  -4  -4    1.33    0.18
  -5   4   4    0.99    0.17
  -5   4   4    1.23    0.17
   4  -4  -4    0.17    0.11
   4  -4  -4    0.02    0.09
   4  -4  -4    0.05    0.11
   4  -4  -4    0.19    0.11
  -4   4   4    0.09    0.09
  -4   4   4    0.12    0.11
  -4   4   4    0.09    0.11
  -4   4   4    0.25    0.10
   3  -4  -4    3.52    0.17
   3  -4  -4    3.14    0.18
   3  -4  -4    3.33    0.19
   3  -4  -4    3.12    0.14
   3  -4  -4    2.73    0.22
   3  -4  -4    3.16    0.10
   3  -4  -4    3.12    0.22
   3  -4  -4    2.89    0.15
   3  -4  -4    3.09    0.18
  -3   4   4    3.00    0.15
  -3   4   4    3.16    0.19
  -3   4   4    3.29    0.15
  -3   4   4    3.26    0.17
  -3   4   4    2.90    0.18
  -3   4   4    3.45    0.18
  -3   4   4    2.99    0.15
  -3   4   4    3.28    0.16
   2  -4  -4   13.50    0.29
   2  -4  -4   13.00    0.47
   2  -4  -4   12.99    0.46
   2  -4  -4   13.23    0.41
   2  -4  -4   14.30    0.42
   2  -4  -4   12.97    0.38
   2  -4  -4   13.57    0.40
   2  -4  -4   13.71    0.35
   2  -4  -4   13.63    0.39
   2  -4  -4   13.61    0.29
   2  -4  -4   12.90    0.34
  -2   4   4   13.46    0.35
  -2   4   4   12.85    0.35
  -2   4   4   13.48    0.41
  -2   4   4   12.67    0.38
  -2   4   4   13.31    0.38
  -2   4   4   13.35    0.46
  -2   4   4   13.40    0.39
  -2   4   4   13.08    0.41
   1  -4  -4    4.73    0.19
   1  -4  -4    4.31    0.19
   1  -4  -4    4.68    0.20
   1  -4  -4    4.42    0.21
   1  -4  -4    4.56    0.19
   1  -4  -4    4.25    0.17
   1  -4  -4    4.27    0.14
   1  -4  -4    4.47    0.14
   1  -4  -4    4.54    0.14
  -1   4   4    4.70    0.19
  -1   4   4    4.59    0.16
  -1   4   4    4.63    0.18
  -1   4   4    4.70    0.15
  -1   4   4    4.75    0.20
  -1   4   4    4.41    0.19
  -1   4   4    4.51    0.20
   0  -4  -4    3.13    0.16
   0  -4  -4    2.90    0.11
   0  -4  -4    2.83    0.15
   0  -4  -4    3.29    0.18
   0  -4  -4    3.13    0.18
   0  -4  -4    2.71    0.17
   0  -4  -4    3.11    0.16
   0  -4  -4    3.03    0.17
   0  -4  -4    3.15    0.21
   0   4   4    2.98    0.16
   0   4   4    3.42    0.17
   0   4   4    3.26    0.17
   0   4   4    3.23    0.17
   0   4   4    2.95    0.16
   0   4   4    3.33    0.12
   0   4   4    3.07    0.10
   0   4   4    3.22    0.13
  -1  -4  -4   29.10    0.80
  -1  -4  -4   28.49    0.76
  -1  -4  -4   28.69    0.89
  -1  -4  -4   27.72    0.79
  -1  -4  -4   27.34    0.76
  -1  -4  -4   27.90    0.76
  -1  -4  -4   28.64    0.67
  -1  -4  -4   28.17    0.92
  -1  -4  -4   28.29    0.59
   1   4   4   27.60    0.69
   1   4   4   28.12    0.62
   1   4   4   28.76    0.81
   1   4   4   27.79    0.76
   1   4   4   28.04    0.74
   1   4   4   27.90    0.75
   1   4   4   28.97    0.88
   1   4   4   28.70    0.79
  -2  -4  -4   15.28    0.40
  -2  -4  -4   15.12    0.33
  -2  -4  -4   15.65    0.49
  -2  -4  -4   14.36    0.41
  -2  -4  -4   14.27    0.48
  -2  -4  -4   15.82    0.56
  -2  -4  -4   15.34    0.45
  -2  -4  -4   14.60    0.54
   2   4   4   15.21    0.45
   2   4   4   14.69    0.46
   2   4   4   14.92    0.48
   2   4   4   15.15    0.36
   2   4   4   14.81    0.41
   2   4   4   14.58    0.47
  -3  -4  -4    0.61    0.12
  -3  -4  -4    0.47    0.12
  -3  -4  -4    0.50    0.12
   3   4   4    0.59    0.11
   3   4   4    0.65    0.13
   3   4   4    0.29    0.11
   3   4   4    0.59    0.09
  -4  -4  -4    0.44    0.14
  -4  -4  -4    0.61    0.15
   4   4   4    0.59    0.11
   4   4   4    0.54    0.15
   4   4   4    0.65    0.15
   5  -5  -4    0.17    0.14
   5  -5  -4   -0.05    0.13
  -5   5   4    0.01    0.14
  -5   5   4    0.17    0.14
   4  -5  -4    0.02    0.11
   4  -5  -4    0.08    0.12
   4  -5  -4    0.17    0.10
  -4   5   4    0.08    0.11
  -4   5   4    0.22    0.09
  -4   5   4   -0.04    0.11
   3  -5  -4   74.66    1.53
   3  -5  -4   74.96    1.73
   3  -5  -4   70.52    1.87
   3  -5  -4   74.47    1.96
   3  -5  -4   73.82    2.21
   3  -5  -4   73.96    1.84
   3  -5  -4   73.13    2.21
   3  -5  -4   74.25    1.67
   3  -5  -4   72.01    1.95
  -3   5   4   73.03    1.81
  -3   5   4   74.09    1.95
  -3   5   4   72.00    1.95
  -3   5   4   72.47    1.84
  -3   5   4   75.47    1.68
  -3   5   4   74.56    1.68
  -3   5   4   71.00    1.87
   2  -5  -4    2.73    0.19
   2  -5  -4    2.92    0.12
   2  -5  -4    3.23    0.18
   2  -5  -4    2.96    0.16
   2  -5  -4    2.56    0.19
   2  -5  -4    2.93    0.13
   2  -5  -4    2.78    0.16
   2  -5  -4    3.01    0.09
   2  -5  -4    3.17    0.16
   2  -5  -4    2.91    0.12
   2  -5  -4    2.96    0.17
  -2   5   4    3.01    0.14
  -2   5   4    3.00    0.14
  -2   5   4    2.86    0.15
  -2   5   4    2.93    0.16
  -2   5   4    2.80    0.17
  -2   5   4    2.71    0.19
  -2   5   4    2.96    0.17
   1  -5  -4   34.76    0.74
   1  -5  -4   34.99    0.94
   1  -5  -4   34.79    0.83
   1  -5  -4   33.94    0.98
   1  -5  -4   35.19    0.74
   1  -5  -4   35.38    0.98
   1  -5  -4   35.25    0.94
   1  -5  -4   35.33    0.90
   1  -5  -4   35.15    0.81
   1  -5  -4   35.44    1.09
   1  -5  -4   34.68    0.81
   1  -5  -4   36.05    1.09
  -1   5   4   35.44    1.08
  -1   5   4   34.27    0.94
  -1   5   4   33.60    0.92
  -1   5   4   35.29    0.97
  -1   5   4   35.66    0.82
  -1   5   4   35.42    0.97
  -1   5   4   34.21    0.82
   0  -5  -4   36.95    1.17
   0  -5  -4   38.66    0.99
   0  -5  -4   38.58    1.02
   0  -5  -4   39.52    1.07
   0  -5  -4   38.11    0.80
   0  -5  -4   37.67    0.80
   0  -5  -4   38.34    1.01
   0  -5  -4   38.02    1.00
   0  -5  -4   37.65    1.06
   0  -5  -4   37.56    0.88
   0  -5  -4   38.06    1.20
   0   5   4   38.27    1.16
   0   5   4   37.14    0.82
   0   5   4   40.00    1.06
   0   5   4   36.45    0.98
   0   5   4   36.98    0.90
   0   5   4   38.79    1.05
   0   5   4   36.74    0.89
   0   5   4   39.60    1.02
  -1  -5  -4   11.01    0.41
  -1  -5  -4   10.37    0.38
  -1  -5  -4   10.73    0.37
  -1  -5  -4   10.52    0.24
  -1  -5  -4   10.13    0.36
  -1  -5  -4   10.37    0.36
  -1  -5  -4   10.74    0.29
  -1  -5  -4   11.22    0.36
  -1  -5  -4   10.11    0.44
   1   5   4   10.67    0.34
   1   5   4   10.98    0.27
   1   5   4   10.52    0.31
   1   5   4   11.28    0.36
   1   5   4   10.90    0.40
   1   5   4   10.16    0.34
   1   5   4   10.33    0.35
   1   5   4   10.52    0.39
   1   5   4   10.48    0.30
  -2  -5  -4    0.61    0.11
  -2  -5  -4    0.57    0.09
  -2  -5  -4    0.55    0.05
  -2  -5  -4    0.47    0.10
  -2  -5  -4    0.66    0.12
  -2  -5  -4    0.57    0.12
  -2  -5  -4    0.50    0.14
  -2  -5  -4    0.63    0.11
   2   5   4    0.49    0.07
   2   5   4    0.55    0.10
   2   5   4    0.50    0.11
   2   5   4    0.64    0.12
   2   5   4    0.73    0.12
   2   5   4    0.60    0.12
   2   5   4    0.72    0.11
  -3  -5  -4    4.80    0.25
  -3  -5  -4    5.46    0.26
   3   5   4    5.17    0.25
   3   5   4    5.29    0.20
   3   5   4    5.39    0.26
  -4  -5  -4    1.65    0.19
  -4  -5  -4    2.20    0.21
   4   5   4    1.73    0.19
   4   5   4    1.99    0.20
   4   5   4    1.94    0.14
   5  -6  -4    1.36    0.20
   5  -6  -4    1.48    0.20
  -5   6   4    1.90    0.21
  -5   6   4    1.51    0.19
   4  -6  -4    6.46    0.29
   4  -6  -4    5.42    0.27
   4  -6  -4    5.62    0.24
  -4   6   4    5.84    0.28
  -4   6   4    6.21    0.29
  -4   6   4    6.24    0.26
   3  -6  -4    0.92    0.12
   3  -6  -4    0.75    0.12
   3  -6  -4    0.72    0.12
   3  -6  -4    0.67    0.13
   3  -6  -4    0.81    0.12
   3  -6  -4    0.54    0.09
   3  -6  -4    0.61    0.06
   3  -6  -4    0.74    0.09
  -3   6   4    0.47    0.11
  -3   6   4    0.73    0.10
  -3   6   4    0.63    0.12
  -3   6   4    0.62    0.10
  -3   6   4    0.77    0.10
   2  -6  -4   13.06    0.49
   2  -6  -4   12.36    0.49
   2  -6  -4   13.06    0.35
   2  -6  -4   12.91    0.43
   2  -6  -4   13.69    0.40
   2  -6  -4   13.00    0.35
   2  -6  -4   12.82    0.41
   2  -6  -4   12.93    0.30
   2  -6  -4   13.93    0.44
   2  -6  -4   12.96    0.35
  -2   6   4   13.52    0.44
  -2   6   4   12.42    0.43
  -2   6   4   13.43    0.42
  -2   6   4   12.26    0.47
  -2   6   4   12.94    0.36
  -2   6   4   12.89    0.36
  -2   6   4   13.32    0.41
   1  -6  -4   26.74    0.88
   1  -6  -4   30.48    0.98
   1  -6  -4   27.21    0.84
   1  -6  -4   31.31    0.72
   1  -6  -4   31.70    0.65
   1  -6  -4   31.86    0.73
   1  -6  -4   31.73    0.91
   1  -6  -4   31.14    0.82
   1  -6  -4   31.36    0.98
   1  -6  -4   31.27    0.85
  -1   6   4   31.65    0.74
  -1   6   4   31.39    0.88
  -1   6   4   30.60    0.88
  -1   6   4   31.17    0.74
  -1   6   4   31.26    0.97
  -1   6   4   30.73    0.83
  -1   6   4   28.23    0.85
   0  -6  -4    9.60    0.36
   0  -6  -4    8.86    0.27
   0  -6  -4    9.37    0.35
   0  -6  -4    9.45    0.23
   0  -6  -4    9.52    0.34
   0  -6  -4   10.15    0.34
   0  -6  -4    9.89    0.33
   0  -6  -4    9.59    0.40
   0  -6  -4    9.26    0.38
   0  -6  -4    9.76    0.33
   0   6   4    9.44    0.32
   0   6   4    9.77    0.34
   0   6   4   10.26    0.36
   0   6   4    9.07    0.28
   0   6   4    9.37    0.28
   0   6   4    9.80    0.35
   0   6   4    9.24    0.24
   0   6   4    9.26    0.37
  -1  -6  -4    0.15    0.09
  -1  -6  -4    0.05    0.12
  -1  -6  -4    0.15    0.10
  -1  -6  -4    0.14    0.10
  -1  -6  -4    0.23    0.07
  -1  -6  -4    0.25    0.10
  -1  -6  -4    0.23    0.04
  -1  -6  -4    0.26    0.11
   1   6   4    0.12    0.09
   1   6   4    0.08    0.09
   1   6   4    0.19    0.09
   1   6   4    0.09    0.08
   1   6   4    0.32    0.11
   1   6   4    0.19    0.09
   1   6   4    0.09    0.06
   1   6   4    0.20    0.07
   1   6   4    0.19    0.08
  -2  -6  -4   12.10    0.29
  -2  -6  -4   12.05    0.42
  -2  -6  -4   12.43    0.51
  -2  -6  -4   11.94    0.44
  -2  -6  -4   11.88    0.35
  -2  -6  -4   12.17    0.42
   2   6   4   11.83    0.36
   2   6   4   11.62    0.37
   2   6   4   11.96    0.32
   2   6   4   11.88    0.41
   2   6   4   11.99    0.42
  -3  -6  -4    2.53    0.20
  -3  -6  -4    2.04    0.19
   3   6   4    2.71    0.21
   3   6   4    2.52    0.15
   3   6   4    2.14    0.19
   3   6   4    2.54    0.21
  -4  -6  -4    0.05    0.15
  -4  -6  -4   -0.05    0.15
   4   6   4   -0.07    0.15
   4   6   4   -0.11    0.14
   4   6   4    0.08    0.15
   4   6   4   -0.06    0.10
   5  -7  -4    1.06    0.19
   5  -7  -4    0.86    0.18
  -5   7   4    1.12    0.19
  -5   7   4    1.09    0.19
   4  -7  -4    0.93    0.13
   4  -7  -4    1.27    0.17
   4  -7  -4    0.98    0.15
  -4   7   4    1.12    0.13
  -4   7   4    1.08    0.16
  -4   7   4    0.84    0.15
   3  -7  -4   16.61    0.38
   3  -7  -4   16.62    0.44
   3  -7  -4   15.54    0.51
   3  -7  -4   16.03    0.54
   3  -7  -4   16.92    0.51
   3  -7  -4   15.53    0.45
  -3   7   4   16.83    0.46
  -3   7   4   16.13    0.45
  -3   7   4   16.42    0.48
  -3   7   4   15.97    0.51
  -3   7   4   16.64    0.51
   2  -7  -4    1.23    0.10
   2  -7  -4    1.34    0.17
   2  -7  -4    1.30    0.14
   2  -7  -4    1.39    0.14
   2  -7  -4    1.47    0.11
   2  -7  -4    1.31    0.10
   2  -7  -4    1.50    0.16
   2  -7  -4    1.32    0.16
   2  -7  -4    1.32    0.14
   2  -7  -4    1.27    0.07
  -2   7   4    1.42    0.15
  -2   7   4    1.42    0.12
  -2   7   4    1.27    0.11
  -2   7   4    1.71    0.16
  -2   7   4    1.27    0.14
  -2   7   4    1.36    0.14
   1  -7  -4    1.32    0.08
   1  -7  -4    1.26    0.14
   1  -7  -4    1.22    0.10
   1  -7  -4    1.26    0.15
   1  -7  -4    1.38    0.15
   1  -7  -4    1.40    0.10
   1  -7  -4    1.36    0.16
   1  -7  -4    1.06    0.15
   1  -7  -4    1.42    0.17
  -1   7   4    1.33    0.14
  -1   7   4    1.37    0.15
  -1   7   4    1.38    0.14
  -1   7   4    1.41    0.15
  -1   7   4    0.87    0.14
  -1   7   4    1.48    0.11
  -1   7   4    1.44    0.12
   0  -7  -4    2.37    0.18
   0  -7  -4    2.35    0.19
   0  -7  -4    2.15    0.12
   0  -7  -4    2.24    0.17
   0  -7  -4    2.31    0.10
   0  -7  -4    2.25    0.18
   0  -7  -4    2.24    0.21
   0  -7  -4    2.46    0.17
   0   7   4    2.24    0.17
   0   7   4    1.96    0.16
   0   7   4    1.99    0.13
   0   7   4    2.29    0.18
   0   7   4    2.32    0.18
   0   7   4    2.52    0.15
   0   7   4    2.25    0.19
  -1  -7  -4    8.95    0.23
  -1  -7  -4    8.34    0.36
  -1  -7  -4    9.20    0.28
  -1  -7  -4    8.01    0.37
  -1  -7  -4    9.11    0.36
  -1  -7  -4    9.02    0.36
  -1  -7  -4    9.88    0.42
   1   7   4    8.62    0.38
   1   7   4    8.74    0.25
   1   7   4    8.81    0.36
   1   7   4    9.11    0.29
   1   7   4    9.67    0.36
   1   7   4    9.49    0.34
   1   7   4    9.20    0.30
  -2  -7  -4    3.07    0.17
  -2  -7  -4    2.98    0.12
  -2  -7  -4    2.51    0.22
  -2  -7  -4    2.46    0.21
   2   7   4    2.97    0.23
   2   7   4    2.84    0.21
   2   7   4    2.68    0.14
  -3  -7  -4    1.36    0.18
  -3  -7  -4    1.27    0.18
   3   7   4    1.37    0.18
   3   7   4    1.17    0.16
   3   7   4    1.66    0.19
   3   7   4    1.47    0.13
   4  -8  -4    5.95    0.27
   4  -8  -4    6.53    0.30
   4  -8  -4    6.01    0.30
  -4   8   4    6.36    0.31
  -4   8   4    6.13    0.30
  -4   8   4    6.40    0.28
   3  -8  -4    4.86    0.25
   3  -8  -4    5.51    0.17
   3  -8  -4    4.94    0.22
   3  -8  -4    5.14    0.26
  -3   8   4    5.25    0.28
  -3   8   4    5.30    0.26
  -3   8   4    5.01    0.24
   2  -8  -4    0.32    0.12
   2  -8  -4    0.21    0.08
   2  -8  -4    0.13    0.12
   2  -8  -4    0.14    0.08
   2  -8  -4    0.06    0.12
   2  -8  -4    0.12    0.05
   2  -8  -4    0.10    0.08
  -2   8   4    0.03    0.12
  -2   8   4    0.26    0.09
  -2   8   4    0.11    0.11
  -2   8   4    0.28    0.09
   1  -8  -4    8.28    0.21
   1  -8  -4    6.67    0.32
   1  -8  -4    8.46    0.26
   1  -8  -4    8.36    0.33
   1  -8  -4    6.78    0.34
   1  -8  -4    8.18    0.39
   1  -8  -4    8.13    0.26
   1  -8  -4    8.42    0.35
  -1   8   4    8.51    0.33
  -1   8   4    8.56    0.33
  -1   8   4    8.14    0.34
  -1   8   4    8.39    0.27
  -1   8   4    8.28    0.27
  -1   8   4    7.16    0.34
   0  -8  -4   13.82    0.33
   0  -8  -4   14.06    0.55
   0  -8  -4   13.68    0.45
   0  -8  -4   13.17    0.48
   0  -8  -4   13.49    0.38
   0  -8  -4   13.89    0.46
   0   8   4   13.61    0.45
   0   8   4   13.73    0.46
   0   8   4   14.21    0.48
   0   8   4   14.09    0.40
   0   8   4   13.68    0.48
   0   8   4   13.56    0.39
  -1  -8  -4    4.56    0.15
  -1  -8  -4    5.04    0.20
  -1  -8  -4    4.55    0.27
  -1  -8  -4    4.70    0.25
  -1  -8  -4    4.19    0.27
   1   8   4    4.53    0.22
   1   8   4    4.48    0.17
   1   8   4    4.13    0.25
   1   8   4    4.44    0.27
   1   8   4    4.48    0.20
  -2  -8  -4    0.04    0.06
  -2  -8  -4    0.13    0.15
  -2  -8  -4   -0.10    0.12
   2   8   4   -0.04    0.12
   2   8   4    0.02    0.08
   2   8   4    0.05    0.12
  -3  -8  -4    1.16    0.20
  -3  -8  -4    1.09    0.18
   3   8   4    1.10    0.12
   3   8   4    0.89    0.17
   3   8   4    1.04    0.18
   4  -9  -4    1.21    0.18
   4  -9  -4    1.69    0.20
  -4   9   4    1.79    0.20
  -4   9   4    1.53    0.20
   3  -9  -4    1.46    0.14
   3  -9  -4    1.60    0.18
   3  -9  -4    1.27    0.18
   3  -9  -4    1.58    0.10
  -3   9   4    1.55    0.19
  -3   9   4    1.60    0.19
  -3   9   4    1.69    0.16
   2  -9  -4    6.79    0.31
   2  -9  -4    7.05    0.20
   2  -9  -4    6.81    0.25
   2  -9  -4    6.54    0.33
   2  -9  -4    7.15    0.26
  -2   9   4    6.17    0.34
  -2   9   4    6.95    0.33
   1  -9  -4    7.52    0.34
   1  -9  -4    7.53    0.26
   1  -9  -4    7.63    0.21
   1  -9  -4    7.49    0.33
   1  -9  -4    7.67    0.34
  -1   9   4    7.10    0.32
  -1   9   4    7.50    0.28
  -1   9   4    7.68    0.34
  -1   9   4    7.80    0.27
   0  -9  -4    2.96    0.21
   0  -9  -4    3.10    0.20
   0  -9  -4    3.01    0.23
   0  -9  -4    2.96    0.13
   0  -9  -4    2.92    0.16
   0   9   4    3.19    0.18
   0   9   4    3.08    0.20
   0   9   4    3.05    0.23
   0   9   4    2.98    0.17
  -1  -9  -4    0.81    0.11
  -1  -9  -4    0.66    0.14
  -1  -9  -4    0.63    0.07
  -1  -9  -4    0.88    0.15
   1   9   4    0.58    0.14
   1   9   4    0.61    0.14
  -2  -9  -4    3.24    0.28
  -2  -9  -4    3.44    0.29
   2   9   4    3.87    0.29
   2   9   4    3.15    0.24
  -3  -9  -4    6.23    0.38
  -3  -9  -4    4.97    0.33
   3   9   4    5.20    0.31
   3   9   4    5.17    0.33
   3   9   4    5.47    0.22
   4 -10  -4    2.72    0.26
   4 -10  -4    2.57    0.25
  -4  10   4    2.81    0.25
  -4  10   4    3.06    0.27
   3 -10  -4    3.13    0.20
   3 -10  -4    3.55    0.27
   3 -10  -4    3.33    0.26
  -3  10   4    3.20    0.25
  -3  10   4    3.16    0.26
  -3  10   4    3.47    0.23
   2 -10  -4    1.77    0.12
   2 -10  -4    1.11    0.19
   2 -10  -4    1.77    0.21
   2 -10  -4    1.56    0.14
  -2  10   4    1.52    0.20
  -2  10   4    1.33    0.20
   1 -10  -4    0.28    0.07
   1 -10  -4    0.18    0.14
   1 -10  -4    0.27    0.10
   1 -10  -4    0.24    0.14
  -1  10   4    0.21    0.14
  -1  10   4    0.23    0.13
   0 -10  -4    2.83    0.22
   0 -10  -4    2.57    0.21
   0 -10  -4    3.02    0.13
   0  10   4    2.99    0.22
   0  10   4    3.17    0.24
  -1 -10  -4    3.65    0.15
  -1 -10  -4    4.04    0.26
  -1 -10  -4    3.47    0.25
   1  10   4    3.83    0.26
   1  10   4    3.87    0.27
  -2 -10  -4    2.83    0.27
  -2 -10  -4    2.84    0.27
   2  10   4    2.79    0.26
   2  10   4    2.26    0.22
   3 -11  -4    0.44    0.18
   3 -11  -4    0.41    0.19
   3 -11  -4    0.30    0.13
  -3  11   4    0.47    0.18
  -3  11   4    0.12    0.17
   2 -11  -4   -0.17    0.10
   2 -11  -4   -0.16    0.15
   2 -11  -4    0.05    0.07
   2 -11  -4   -0.44    0.15
  -2  11   4   -0.08    0.15
  -2  11   4   -0.18    0.14
   1 -11  -4    5.57    0.19
   1 -11  -4    5.33    0.31
   1 -11  -4    5.63    0.31
  -1  11   4    5.06    0.30
  -1  11   4    5.23    0.30
  -1  11   4    5.19    0.29
   0 -11  -4    3.42    0.25
   0 -11  -4    3.11    0.15
   0 -11  -4    3.19    0.24
   0  11   4    3.03    0.24
   0  11   4    3.61    0.25
  -1 -11  -4    0.34    0.14
  -1 -11  -4    0.21    0.14
   1  11   4    0.35    0.14
   1  11   4    0.44    0.15
  -2 -11  -4    0.52    0.19
  -2 -11  -4    0.45    0.18
   2  11   4    0.62    0.19
   2  11   4    0.91    0.19
   3 -12  -4   -0.24    0.17
   3 -12  -4    0.07    0.18
  -3  12   4    0.06    0.18
  -3  12   4   -0.24    0.17
   2 -12  -4    1.77    0.24
   2 -12  -4    1.01    0.21
  -2  12   4    1.84    0.24
  -2  12   4    1.25    0.21
   1 -12  -4    0.97    0.18
   1 -12  -4    0.95    0.18
  -1  12   4    1.01    0.19
  -1  12   4    1.35    0.19
  -1  12   4    1.17    0.19
   0 -12  -4   -0.01    0.14
   0 -12  -4    0.08    0.13
   0  12   4   -0.02    0.14
   0  12   4   -0.02    0.14
  -1 -12  -4    0.04    0.15
  -1 -12  -4    0.17    0.15
   1  12   4   -0.02    0.15
   1  12   4    0.16    0.15
   1 -13  -4    0.27    0.15
   1 -13  -4    0.37    0.17
  -1  13   4    0.33    0.17
  -1  13   4    0.31    0.16
  -1  13   4    0.52    0.16
   0  14  -5    0.16    0.14
   0 -14   5    0.09    0.09
   0 -14   5    0.18    0.15
   1  13  -5    0.55    0.16
   1  13  -5    0.94    0.16
  -1 -13   5    0.78    0.16
  -1 -13   5    0.74    0.11
   0  13  -5    1.18    0.16
   0  13  -5    1.27    0.18
   0 -13   5    1.24    0.12
   0 -13   5    1.45    0.18
  -1  13  -5    0.38    0.16
  -1  13  -5    0.46    0.14
   1 -13   5    0.30    0.09
   1 -13   5    0.37    0.15
  -2  13  -5    1.56    0.18
   2 -13   5    1.64    0.20
   2 -13   5    1.67    0.14
   2  12  -5    0.03    0.13
  -2 -12   5   -0.18    0.15
   1  12  -5   -0.05    0.11
   1  12  -5   -0.02    0.11
   1  12  -5   -0.05    0.15
  -1 -12   5    0.02    0.08
  -1 -12   5   -0.12    0.12
  -1 -12   5    0.07    0.10
   0  12  -5    2.41    0.24
   0  12  -5    2.15    0.20
   0  12  -5    2.18    0.18
   0 -12   5    2.15    0.14
   0 -12   5    2.21    0.16
   0 -12   5    2.80    0.22
  -1  12  -5    5.99    0.36
  -1  12  -5    5.09    0.29
  -1  12  -5    4.90    0.26
   1 -12   5    5.09    0.20
   1 -12   5    5.30    0.23
   1 -12   5    4.83    0.27
  -2  12  -5    0.16    0.13
  -2  12  -5    0.45    0.15
   2 -12   5    0.33    0.15
   2 -12   5    0.29    0.10
  -3  12  -5    0.13    0.14
   3 -12   5    0.14    0.15
   3 -12   5   -0.05    0.12
   3  11  -5   -0.05    0.15
  -3 -11   5    0.16    0.16
   2  11  -5    0.40    0.17
   2  11  -5    0.04    0.12
   2  11  -5    0.28    0.20
  -2 -11   5    0.38    0.12
  -2 -11   5    0.05    0.16
   1  11  -5    5.48    0.28
   1  11  -5    5.22    0.26
   1  11  -5    5.46    0.34
  -1 -11   5    5.31    0.23
  -1 -11   5    5.53    0.28
   0  11  -5    4.18    0.22
   0  11  -5    4.52    0.30
   0  11  -5    4.87    0.27
   0  11  -5    4.56    0.25
   0 -11   5    4.40    0.17
   0 -11   5    4.72    0.24
   0 -11   5    4.70    0.20
  -1  11  -5    0.23    0.11
  -1  11  -5    0.15    0.15
  -1  11  -5    0.16    0.12
   1 -11   5    0.10    0.09
   1 -11   5    0.24    0.08
   1 -11   5    0.11    0.11
  -2  11  -5    3.36    0.29
  -2  11  -5    3.18    0.22
  -2  11  -5    3.26    0.23
   2 -11   5    3.34    0.19
   2 -11   5    3.11    0.22
   2 -11   5    3.19    0.17
  -3  11  -5    3.67    0.24
   3 -11   5    3.98    0.25
   3 -11   5    3.01    0.20
   3  10  -5    2.80    0.23
   3  10  -5    3.23    0.27
  -3 -10   5    3.10    0.24
   2  10  -5    1.22    0.16
   2  10  -5    1.44    0.20
   2  10  -5    1.70    0.23
  -2 -10   5    1.48    0.15
  -2 -10   5    1.47    0.19
   1  10  -5    2.06    0.15
   1  10  -5    1.61    0.21
   1  10  -5    2.34    0.20
   1  10  -5    2.11    0.17
   1  10  -5    1.90    0.18
   1  10  -5    2.33    0.23
  -1 -10   5    2.04    0.15
  -1 -10   5    2.16    0.17
  -1 -10   5    1.93    0.18
  -1 -10   5    2.12    0.16
   0  10  -5    1.39    0.14
   0  10  -5    1.57    0.13
   0  10  -5    1.70    0.16
   0  10  -5    1.64    0.21
   0  10  -5    1.78    0.17
   0  10  -5    1.73    0.19
   0  10  -5    1.51    0.11
   0 -10   5    1.60    0.11
   0 -10   5    1.57    0.14
   0 -10   5    1.45    0.12
   0 -10   5    1.76    0.13
   0 -10   5    1.74    0.15
  -1  10  -5    6.32    0.28
  -1  10  -5    6.28    0.33
  -1  10  -5    6.38    0.29
  -1  10  -5    6.26    0.24
  -1  10  -5    5.57    0.37
  -1  10  -5    5.80    0.25
   1 -10   5    6.15    0.19
   1 -10   5    6.67    0.26
   1 -10   5    6.00    0.26
   1 -10   5    6.40    0.23
  -2  10  -5    9.79    0.44
  -2  10  -5    9.84    0.38
  -2  10  -5    9.66    0.35
   2 -10   5   10.51    0.38
   2 -10   5    9.72    0.36
   2 -10   5   10.10    0.31
   2 -10   5   10.16    0.30
  -3  10  -5    1.01    0.15
  -3  10  -5    0.86    0.17
   3 -10   5    0.82    0.13
   3 -10   5    0.88    0.15
   4   9  -5    2.28    0.22
  -4  -9   5    3.22    0.24
   3   9  -5    1.47    0.17
   3   9  -5    1.37    0.18
   3   9  -5    1.43    0.23
  -3  -9   5    1.34    0.16
   2   9  -5    1.12    0.16
   2   9  -5    0.79    0.14
   2   9  -5    0.99    0.19
   2   9  -5    0.97    0.16
   2   9  -5    0.71    0.12
   2   9  -5    1.03    0.16
  -2  -9   5    1.25    0.13
  -2  -9   5    0.93    0.15
  -2  -9   5    0.92    0.14
   1   9  -5    2.56    0.21
   1   9  -5    2.62    0.15
   1   9  -5    2.72    0.16
   1   9  -5    2.60    0.21
   1   9  -5    2.66    0.23
   1   9  -5    2.71    0.18
   1   9  -5    2.61    0.24
  -1  -9   5    2.77    0.15
  -1  -9   5    2.96    0.15
  -1  -9   5    2.43    0.17
  -1  -9   5    2.86    0.21
  -1  -9   5    3.00    0.15
   0   9  -5   11.62    0.44
   0   9  -5   10.55    0.39
   0   9  -5   11.77    0.47
   0   9  -5   11.41    0.32
   0   9  -5   11.58    0.41
   0   9  -5   10.68    0.36
   0   9  -5   11.29    0.34
   0  -9   5   11.08    0.32
   0  -9   5   11.65    0.37
   0  -9   5   11.54    0.33
   0  -9   5   11.49    0.37
  -1   9  -5    5.01    0.25
  -1   9  -5    4.87    0.21
  -1   9  -5    5.19    0.20
  -1   9  -5    5.53    0.28
  -1   9  -5    4.09    0.32
  -1   9  -5    5.05    0.24
   1  -9   5    5.58    0.23
   1  -9   5    5.34    0.19
   1  -9   5    5.32    0.22
   1  -9   5    5.42    0.17
   1  -9   5    5.00    0.22
  -2   9  -5    0.43    0.11
  -2   9  -5    0.25    0.13
  -2   9  -5    0.54    0.19
  -2   9  -5    0.43    0.11
  -2   9  -5    0.42    0.10
  -2   9  -5    0.34    0.10
   2  -9   5    0.36    0.11
   2  -9   5    0.56    0.11
   2  -9   5    0.43    0.09
   2  -9   5    0.49    0.12
   2  -9   5    0.40    0.09
  -3   9  -5    3.58    0.22
  -3   9  -5    3.96    0.30
  -3   9  -5    3.09    0.22
   3  -9   5    3.90    0.19
   3  -9   5    3.48    0.22
   3  -9   5    3.72    0.18
  -4   9  -5    0.03    0.14
   4  -9   5    0.05    0.14
   4  -9   5    0.06    0.11
   4   8  -5    1.18    0.17
   4   8  -5    1.07    0.16
  -4  -8   5    0.80    0.15
   3   8  -5    0.89    0.14
   3   8  -5    0.82    0.13
   3   8  -5    0.91    0.18
  -3  -8   5    0.84    0.13
  -3  -8   5    0.80    0.13
   2   8  -5    1.07    0.13
   2   8  -5    1.29    0.12
   2   8  -5    1.05    0.13
   2   8  -5    1.14    0.18
   2   8  -5    1.17    0.13
   2   8  -5    1.18    0.15
  -2  -8   5    1.09    0.13
  -2  -8   5    0.92    0.11
  -2  -8   5    1.09    0.10
  -2  -8   5    0.98    0.13
   1   8  -5    9.17    0.28
   1   8  -5    8.72    0.30
   1   8  -5    8.12    0.33
   1   8  -5    8.40    0.35
   1   8  -5    8.46    0.36
   1   8  -5    9.04    0.37
   1   8  -5    8.29    0.30
   1   8  -5    8.22    0.27
  -1  -8   5    8.48    0.28
  -1  -8   5    8.35    0.26
  -1  -8   5    7.79    0.33
  -1  -8   5    8.71    0.30
  -1  -8   5    8.45    0.25
   0   8  -5    8.27    0.31
   0   8  -5    8.00    0.25
   0   8  -5    7.67    0.26
   0   8  -5    8.12    0.35
   0   8  -5    7.44    0.29
   0   8  -5    7.97    0.33
   0   8  -5    7.59    0.23
   0   8  -5    8.24    0.29
   0  -8   5    8.25    0.24
   0  -8   5    7.76    0.24
   0  -8   5    7.93    0.28
   0  -8   5    7.66    0.23
   0  -8   5    7.93    0.27
  -1   8  -5    2.42    0.18
  -1   8  -5    2.07    0.21
  -1   8  -5    1.89    0.13
  -1   8  -5    2.11    0.19
  -1   8  -5    2.19    0.14
  -1   8  -5    2.09    0.17
  -1   8  -5    2.18    0.15
   1  -8   5    2.17    0.15
   1  -8   5    1.88    0.14
   1  -8   5    2.11    0.10
   1  -8   5    2.12    0.14
   1  -8   5    2.04    0.12
  -2   8  -5   10.00    0.34
  -2   8  -5   10.19    0.32
  -2   8  -5    9.88    0.36
  -2   8  -5   10.29    0.44
  -2   8  -5   10.70    0.37
  -2   8  -5   10.45    0.42
   2  -8   5   10.34    0.34
   2  -8   5    9.82    0.34
   2  -8   5   10.72    0.32
   2  -8   5   10.24    0.34
   2  -8   5    9.65    0.30
   2  -8   5   10.21    0.29
  -3   8  -5   13.38    0.53
  -3   8  -5   12.64    0.46
  -3   8  -5   12.41    0.42
   3  -8   5   13.22    0.38
   3  -8   5   13.09    0.35
   3  -8   5   12.63    0.42
   3  -8   5   12.75    0.43
  -4   8  -5    0.16    0.13
   4  -8   5   -0.11    0.10
   4  -8   5    0.12    0.14
   4   7  -5    2.10    0.20
   4   7  -5    2.87    0.22
  -4  -7   5    2.74    0.20
   3   7  -5    1.96    0.16
   3   7  -5    2.11    0.17
   3   7  -5    2.44    0.18
   3   7  -5    2.29    0.17
   3   7  -5    2.16    0.22
   3   7  -5    2.01    0.17
  -3  -7   5    2.21    0.17
  -3  -7   5    2.06    0.16
  -3  -7   5    1.47    0.15
   2   7  -5    8.22    0.34
   2   7  -5    8.61    0.37
   2   7  -5    7.93    0.29
   2   7  -5    8.00    0.30
   2   7  -5    8.28    0.28
   2   7  -5    8.12    0.30
   2   7  -5    7.92    0.28
   2   7  -5    8.37    0.29
  -2  -7   5    8.21    0.29
  -2  -7   5    7.97    0.24
  -2  -7   5    7.94    0.29
  -2  -7   5    8.26    0.28
   1   7  -5    3.12    0.15
   1   7  -5    3.25    0.22
   1   7  -5    3.33    0.17
   1   7  -5    3.21    0.19
   1   7  -5    3.67    0.17
   1   7  -5    3.25    0.18
   1   7  -5    3.35    0.15
   1   7  -5    3.32    0.21
  -1  -7   5    3.51    0.14
  -1  -7   5    3.42    0.13
  -1  -7   5    3.45    0.17
  -1  -7   5    3.27    0.15
  -1  -7   5    3.27    0.18
   0   7  -5    2.71    0.16
   0   7  -5    2.72    0.12
   0   7  -5    2.96    0.18
   0   7  -5    2.93    0.21
   0   7  -5    2.75    0.17
   0   7  -5    2.72    0.16
   0   7  -5    3.02    0.12
   0   7  -5    2.90    0.14
   0  -7   5    2.88    0.12
   0  -7   5    3.08    0.15
   0  -7   5    2.96    0.12
   0  -7   5    2.80    0.15
   0  -7   5    3.13    0.16
   0  -7   5    2.86    0.12
  -1   7  -5   14.39    0.53
  -1   7  -5   14.58    0.44
  -1   7  -5   14.46    0.42
  -1   7  -5   14.69    0.41
  -1   7  -5   14.36    0.39
  -1   7  -5   15.37    0.45
  -1   7  -5   14.93    0.50
   1  -7   5   14.93    0.42
   1  -7   5   14.66    0.37
   1  -7   5   14.45    0.41
   1  -7   5   11.87    0.38
   1  -7   5   15.11    0.33
  -2   7  -5   18.70    0.53
  -2   7  -5   18.69    0.57
  -2   7  -5   18.96    0.66
  -2   7  -5   18.91    0.64
  -2   7  -5   18.81    0.54
  -2   7  -5   18.90    0.52
  -2   7  -5   18.85    0.56
   2  -7   5   18.78    0.48
   2  -7   5   19.10    0.53
   2  -7   5   18.99    0.49
   2  -7   5   18.29    0.52
   2  -7   5   18.51    0.53
   2  -7   5   18.57    0.44
  -3   7  -5    1.14    0.13
  -3   7  -5    0.97    0.14
  -3   7  -5    0.95    0.12
  -3   7  -5    0.79    0.16
   3  -7   5    0.79    0.12
   3  -7   5    0.85    0.11
   3  -7   5    0.82    0.10
   3  -7   5    0.83    0.13
   3  -7   5    0.87    0.13
  -4   7  -5    0.22    0.13
   4  -7   5    0.53    0.15
   4  -7   5    0.45    0.11
   4   6  -5    1.41    0.17
   4   6  -5    1.45    0.17
  -4  -6   5    1.37    0.16
   3   6  -5   11.64    0.39
   3   6  -5   11.75    0.47
   3   6  -5   11.17    0.46
   3   6  -5   11.72    0.37
   3   6  -5   12.40    0.41
   3   6  -5   11.24    0.41
  -3  -6   5   11.88    0.39
  -3  -6   5   12.14    0.34
  -3  -6   5   11.87    0.38
  -3  -6   5   11.91    0.38
   2   6  -5    0.36    0.08
   2   6  -5    0.43    0.08
   2   6  -5    0.28    0.08
   2   6  -5    0.36    0.08
   2   6  -5    0.35    0.11
   2   6  -5    0.26    0.07
   2   6  -5    0.42    0.10
   2   6  -5    0.26    0.08
   2   6  -5    0.34    0.09
  -2  -6   5    0.28    0.06
  -2  -6   5    0.30    0.08
  -2  -6   5    0.32    0.08
  -2  -6   5    0.25    0.08
   1   6  -5    9.69    0.37
   1   6  -5    9.72    0.28
   1   6  -5    9.43    0.29
   1   6  -5    9.45    0.31
   1   6  -5    9.93    0.29
   1   6  -5   10.15    0.32
   1   6  -5   10.10    0.33
   1   6  -5   10.28    0.36
  -1  -6   5    9.62    0.30
  -1  -6   5    9.67    0.29
  -1  -6   5    9.29    0.32
  -1  -6   5    9.55    0.30
  -1  -6   5    9.64    0.25
  -1  -6   5   10.03    0.26
   0   6  -5   33.31    1.07
   0   6  -5   35.16    0.89
   0   6  -5   34.53    0.86
   0   6  -5   34.77    0.86
   0   6  -5   35.42    1.05
   0   6  -5   36.83    0.96
   0   6  -5   34.06    0.94
   0  -6   5   35.85    0.86
   0  -6   5   34.16    0.80
   0  -6   5   35.58    0.79
   0  -6   5   34.21    0.88
   0  -6   5   34.76    0.88
   0  -6   5   35.59    0.89
  -1   6  -5   21.59    0.59
  -1   6  -5   20.98    0.68
  -1   6  -5   20.72    0.54
  -1   6  -5   20.60    0.66
  -1   6  -5   20.07    0.55
  -1   6  -5   20.75    0.56
  -1   6  -5   20.55    0.59
   1  -6   5   20.83    0.55
   1  -6   5   20.41    0.55
   1  -6   5   21.23    0.56
   1  -6   5   20.22    0.51
   1  -6   5   20.86    0.50
   1  -6   5   21.92    0.55
  -2   6  -5   31.78    0.89
  -2   6  -5   33.12    1.02
  -2   6  -5   31.61    0.84
  -2   6  -5   32.21    0.82
  -2   6  -5   32.10    0.89
  -2   6  -5   31.60    0.84
  -2   6  -5   33.06    1.01
   2  -6   5   31.51    0.84
   2  -6   5   30.45    0.80
   2  -6   5   31.94    0.83
   2  -6   5   32.78    0.70
   2  -6   5   31.89    0.76
   2  -6   5   31.25    0.76
  -3   6  -5    4.41    0.23
  -3   6  -5    4.47    0.23
  -3   6  -5    4.40    0.29
  -3   6  -5    4.01    0.21
  -3   6  -5    4.34    0.28
  -3   6  -5    3.84    0.20
   3  -6   5    4.15    0.22
   3  -6   5    3.90    0.21
   3  -6   5    4.12    0.19
   3  -6   5    4.26    0.22
   3  -6   5    4.30    0.17
  -4   6  -5    0.47    0.13
  -4   6  -5    0.72    0.16
   4  -6   5    0.41    0.14
   4  -6   5    0.56    0.10
   5   5  -5    0.28    0.15
  -5  -5   5    0.48    0.14
   4   5  -5    0.36    0.13
   4   5  -5    0.49    0.13
   4   5  -5    0.39    0.16
   4   5  -5    0.51    0.12
  -4  -5   5    0.56    0.13
  -4  -5   5    0.32    0.12
   3   5  -5    1.70    0.17
   3   5  -5    1.96    0.08
   3   5  -5    1.93    0.16
   3   5  -5    1.87    0.17
   3   5  -5    1.75    0.14
   3   5  -5    2.10    0.14
   3   5  -5    2.00    0.15
  -3  -5   5    1.71    0.14
  -3  -5   5    1.90    0.15
  -3  -5   5    2.10    0.13
  -3  -5   5    1.98    0.15
   2   5  -5    6.64    0.24
   2   5  -5    6.99    0.28
   2   5  -5    7.00    0.23
   2   5  -5    6.90    0.25
   2   5  -5    7.16    0.24
   2   5  -5    7.24    0.26
   2   5  -5    7.18    0.24
   2   5  -5    7.42    0.30
  -2  -5   5    6.97    0.21
  -2  -5   5    7.03    0.24
  -2  -5   5    7.08    0.23
  -2  -5   5    6.93    0.25
   1   5  -5   30.99    0.92
   1   5  -5   29.76    0.93
   1   5  -5   31.50    0.82
   1   5  -5   30.60    0.75
   1   5  -5   29.20    0.79
   1   5  -5   30.47    0.77
   1   5  -5   29.08    0.82
  -1  -5   5   32.39    0.77
  -1  -5   5   30.36    0.77
  -1  -5   5   30.73    0.69
  -1  -5   5   30.50    0.79
  -1  -5   5   30.49    0.77
  -1  -5   5   30.20    0.70
   0   5  -5    7.25    0.26
   0   5  -5    7.38    0.22
   0   5  -5    7.02    0.21
   0   5  -5    7.15    0.24
   0   5  -5    7.36    0.24
   0   5  -5    8.24    0.28
   0   5  -5    7.35    0.23
   0  -5   5    7.19    0.22
   0  -5   5    7.52    0.21
   0  -5   5    7.28    0.18
   0  -5   5    7.27    0.22
   0  -5   5    7.47    0.21
   0  -5   5    7.23    0.19
  -1   5  -5    9.96    0.27
  -1   5  -5   10.21    0.31
  -1   5  -5    9.90    0.31
  -1   5  -5    9.41    0.35
  -1   5  -5   10.03    0.35
  -1   5  -5    9.89    0.29
  -1   5  -5   10.22    0.29
   1  -5   5    9.96    0.29
   1  -5   5    9.95    0.29
   1  -5   5   10.23    0.29
   1  -5   5    9.87    0.25
   1  -5   5   10.08    0.28
   1  -5   5   10.27    0.27
  -2   5  -5   74.27    1.89
  -2   5  -5   74.95    2.24
  -2   5  -5   76.36    2.23
  -2   5  -5   76.55    1.97
  -2   5  -5   75.32    1.84
  -2   5  -5   75.25    1.88
  -2   5  -5   75.54    1.97
   2  -5   5   77.13    1.89
   2  -5   5   73.86    1.69
   2  -5   5   76.75    1.58
   2  -5   5   74.95    1.70
   2  -5   5   72.43    1.77
   2  -5   5   74.25    1.85
  -3   5  -5    1.40    0.13
  -3   5  -5    1.19    0.18
  -3   5  -5    1.49    0.09
  -3   5  -5    1.59    0.13
  -3   5  -5    1.27    0.14
  -3   5  -5    1.23    0.14
  -3   5  -5    1.58    0.17
   3  -5   5    1.20    0.13
   3  -5   5    1.32    0.13
   3  -5   5    1.45    0.13
   3  -5   5    1.49    0.10
   3  -5   5    1.50    0.11
  -4   5  -5    0.06    0.12
  -4   5  -5    0.07    0.11
  -4   5  -5   -0.03    0.11
   4  -5   5    0.13    0.12
   4  -5   5    0.05    0.09
   5   4  -5    0.27    0.15
  -5  -4   5    0.04    0.13
   4   4  -5    2.99    0.20
   4   4  -5    2.90    0.13
   4   4  -5    2.50    0.20
   4   4  -5    2.83    0.22
   4   4  -5    2.62    0.19
   4   4  -5    2.71    0.26
  -4  -4   5    3.15    0.19
  -4  -4   5    2.66    0.19
   3   4  -5    8.66    0.21
   3   4  -5    8.85    0.32
   3   4  -5    8.31    0.29
   3   4  -5    8.75    0.30
   3   4  -5    8.61    0.38
   3   4  -5    8.88    0.32
   3   4  -5    8.74    0.28
   3   4  -5    8.50    0.21
   3   4  -5    8.52    0.31
   3   4  -5    8.17    0.35
  -3  -4   5    8.60    0.30
  -3  -4   5    8.96    0.26
  -3  -4   5    8.16    0.29
  -3  -4   5    8.42    0.29
   2   4  -5   19.53    0.52
   2   4  -5   19.53    0.64
   2   4  -5   20.44    0.54
   2   4  -5   20.32    0.57
   2   4  -5   20.11    0.56
   2   4  -5   19.89    0.54
   2   4  -5   19.95    0.56
   2   4  -5   19.57    0.54
  -2  -4   5   20.52    0.48
  -2  -4   5   19.76    0.56
  -2  -4   5   19.42    0.54
  -2  -4   5   20.46    0.53
  -2  -4   5   19.49    0.43
  -2  -4   5   20.55    0.53
  -2  -4   5   20.04    0.54
   1   4  -5    0.25    0.03
   1   4  -5    0.30    0.05
   1   4  -5    0.30    0.05
   1   4  -5    0.14    0.06
   1   4  -5    0.24    0.06
   1   4  -5    0.27    0.05
   1   4  -5    0.22    0.04
   1   4  -5    0.21    0.07
  -1  -4   5    0.24    0.03
  -1  -4   5    0.32    0.05
  -1  -4   5    0.30    0.05
  -1  -4   5    0.32    0.04
  -1  -4   5    0.26    0.04
  -1  -4   5    0.19    0.04
  -1  -4   5    0.21    0.05
  -1  -4   5    0.28    0.04
   0   4  -5   18.81    0.56
   0   4  -5   18.70    0.56
   0   4  -5   18.89    0.50
   0   4  -5   18.90    0.51
   0   4  -5   18.52    0.48
   0   4  -5   18.95    0.48
   0  -4   5   18.42    0.47
   0  -4   5   18.55    0.47
   0  -4   5   19.21    0.47
   0  -4   5   18.70    0.49
   0  -4   5   18.66    0.48
  -1   4  -5   25.78    0.70
  -1   4  -5   25.29    0.64
  -1   4  -5   26.48    0.67
  -1   4  -5   25.51    0.70
  -1   4  -5   25.62    0.79
  -1   4  -5   25.12    0.79
   1  -4   5   25.85    0.62
   1  -4   5   26.14    0.64
   1  -4   5   26.00    0.69
   1  -4   5   24.87    0.65
   1  -4   5   25.66    0.66
   1  -4   5   26.85    0.62
   1  -4   5   25.99    0.59
   1  -4   5   26.44    0.60
   1  -4   5   26.12    0.65
  -2   4  -5    0.14    0.07
  -2   4  -5    0.17    0.08
  -2   4  -5    0.17    0.09
  -2   4  -5    0.11    0.06
  -2   4  -5    0.03    0.06
  -2   4  -5    0.27    0.10
  -2   4  -5    0.16    0.07
   2  -4   5    0.16    0.06
   2  -4   5    0.14    0.07
   2  -4   5    0.28    0.08
   2  -4   5    0.08    0.07
   2  -4   5    0.07    0.06
   2  -4   5    0.18    0.05
   2  -4   5    0.21    0.03
   2  -4   5    0.21    0.06
  -3   4  -5    9.09    0.34
  -3   4  -5    9.13    0.40
  -3   4  -5    8.69    0.30
  -3   4  -5    9.32    0.39
  -3   4  -5    8.63    0.32
  -3   4  -5    9.53    0.34
  -3   4  -5    9.05    0.24
   3  -4   5    8.90    0.28
   3  -4   5    9.29    0.32
   3  -4   5    9.34    0.31
   3  -4   5    9.01    0.32
   3  -4   5    9.28    0.25
   3  -4   5    9.10    0.25
  -4   4  -5    3.31    0.24
  -4   4  -5    3.29    0.22
  -4   4  -5    3.35    0.21
   4  -4   5    3.22    0.16
   4  -4   5    3.36    0.21
   4  -4   5    3.21    0.22
   5   3  -5    0.21    0.14
  -5  -3   5   -0.12    0.13
   4   3  -5    3.28    0.20
   4   3  -5    3.73    0.15
   4   3  -5    3.68    0.23
   4   3  -5    3.42    0.27
   4   3  -5    3.60    0.20
  -4  -3   5    3.55    0.20
  -4  -3   5    3.37    0.20
  -4  -3   5    3.57    0.21
   3   3  -5    6.10    0.24
   3   3  -5    6.38    0.17
   3   3  -5    6.68    0.24
   3   3  -5    6.41    0.17
   3   3  -5    6.52    0.24
   3   3  -5    6.35    0.25
   3   3  -5    6.53    0.26
   3   3  -5    6.04    0.29
   3   3  -5    6.24    0.22
   3   3  -5    5.31    0.31
  -3  -3   5    6.30    0.24
  -3  -3   5    6.03    0.23
  -3  -3   5    6.76    0.21
  -3  -3   5    5.83    0.24
  -3  -3   5    6.68    0.26
   2   3  -5    0.47    0.07
   2   3  -5    0.35    0.06
   2   3  -5    0.34    0.07
   2   3  -5    0.50    0.07
   2   3  -5    0.40    0.07
   2   3  -5    0.41    0.08
   2   3  -5    0.45    0.06
   2   3  -5    0.27    0.10
  -2  -3   5    0.38    0.06
  -2  -3   5    0.36    0.07
  -2  -3   5    0.45    0.05
  -2  -3   5    0.49    0.06
  -2  -3   5    0.40    0.06
  -2  -3   5    0.47    0.03
  -2  -3   5    0.48    0.06
   1   3  -5   10.68    0.27
   1   3  -5   11.14    0.30
   1   3  -5   11.03    0.36
   1   3  -5   11.15    0.30
   1   3  -5   11.13    0.31
   1   3  -5   11.52    0.30
   1   3  -5   11.31    0.35
   1   3  -5   11.11    0.31
   1   3  -5   11.43    0.31
  -1  -3   5   11.43    0.29
  -1  -3   5   11.29    0.30
  -1  -3   5   11.41    0.29
  -1  -3   5   11.16    0.29
  -1  -3   5   11.81    0.30
  -1  -3   5   11.79    0.32
   0   3  -5   76.26    1.85
   0   3  -5   77.66    1.85
   0   3  -5   75.81    1.93
   0   3  -5   75.43    1.93
   0  -3   5   76.97    1.82
   0  -3   5   75.77    1.82
   0  -3   5   76.36    1.82
   0  -3   5   74.95    1.86
   0  -3   5   73.31    1.85
  -1   3  -5    0.06    0.04
  -1   3  -5    0.12    0.05
  -1   3  -5    0.08    0.03
  -1   3  -5    0.12    0.05
  -1   3  -5    0.30    0.08
  -1   3  -5    0.16    0.05
  -1   3  -5    0.10    0.05
   1  -3   5    0.12    0.03
   1  -3   5    0.24    0.05
   1  -3   5    0.12    0.04
   1  -3   5    0.15    0.04
   1  -3   5    0.14    0.05
   1  -3   5    0.12    0.04
   1  -3   5    0.09    0.04
  -2   3  -5   15.18    0.43
  -2   3  -5   15.19    0.52
  -2   3  -5   15.36    0.41
  -2   3  -5   16.17    0.44
  -2   3  -5   15.15    0.42
  -2   3  -5   14.99    0.45
  -2   3  -5   15.55    0.52
  -2   3  -5   14.72    0.46
   2  -3   5   15.72    0.39
   2  -3   5   14.63    0.43
   2  -3   5   14.94    0.35
   2  -3   5   15.98    0.39
   2  -3   5   15.13    0.45
   2  -3   5   15.14    0.41
   2  -3   5   15.33    0.43
   2  -3   5   15.24    0.39
  -3   3  -5    8.54    0.24
  -3   3  -5    8.98    0.30
  -3   3  -5    8.90    0.33
  -3   3  -5    8.70    0.38
  -3   3  -5    8.70    0.31
  -3   3  -5    8.26    0.33
  -3   3  -5    9.23    0.39
   3  -3   5    8.80    0.24
   3  -3   5    8.73    0.29
   3  -3   5    8.71    0.31
   3  -3   5    8.79    0.27
   3  -3   5    9.25    0.26
   3  -3   5    9.24    0.33
   3  -3   5    8.70    0.31
  -4   3  -5    5.94    0.26
  -4   3  -5    5.12    0.27
  -4   3  -5    4.76    0.25
   4  -3   5    5.11    0.26
   4  -3   5    5.19    0.20
   4  -3   5    5.74    0.26
   4  -3   5    5.32    0.26
   5   2  -5    1.74    0.18
   5   2  -5    1.33    0.17
  -5  -2   5    1.40    0.17
   4   2  -5    0.50    0.11
   4   2  -5    0.48    0.12
   4   2  -5    0.53    0.08
   4   2  -5    0.44    0.12
   4   2  -5    0.50    0.15
  -4  -2   5    0.48    0.11
  -4  -2   5    0.56    0.12
  -4  -2   5    0.30    0.10
   3   2  -5    5.84    0.16
   3   2  -5    6.11    0.23
   3   2  -5    5.71    0.16
   3   2  -5    5.67    0.28
   3   2  -5    5.94    0.24
   3   2  -5    6.34    0.22
   3   2  -5    5.82    0.22
   3   2  -5    5.71    0.27
   3   2  -5    5.39    0.23
   3   2  -5    5.65    0.23
  -3  -2   5    5.90    0.23
  -3  -2   5    6.51    0.22
  -3  -2   5    6.02    0.20
  -3  -2   5    5.57    0.22
  -3  -2   5    5.78    0.22
  -3  -2   5    5.64    0.22
   2   2  -5   17.91    0.50
   2   2  -5   18.26    0.49
   2   2  -5   17.91    0.57
   2   2  -5   17.84    0.50
   2   2  -5   17.64    0.48
   2   2  -5   18.61    0.57
   2   2  -5   17.76    0.46
   2   2  -5   18.49    0.48
  -2  -2   5   18.37    0.50
  -2  -2   5   17.64    0.49
  -2  -2   5   17.55    0.47
  -2  -2   5   17.93    0.43
  -2  -2   5   17.82    0.38
  -2  -2   5   18.08    0.48
  -2  -2   5   17.82    0.47
   1   2  -5   65.63    1.58
   1   2  -5   65.24    1.87
   1   2  -5   64.51    1.65
   1   2  -5   65.05    1.58
   1   2  -5   64.50    1.66
   1   2  -5   63.78    1.57
   1   2  -5   65.39    1.87
  -1  -2   5   64.87    1.58
  -1  -2   5   63.25    1.64
  -1  -2   5   63.12    1.55
  -1  -2   5   64.47    1.56
  -1  -2   5   65.94    1.58
  -1  -2   5   65.37    1.64
  -1  -2   5   64.96    1.57
   0   2  -5   44.58    1.13
   0   2  -5   44.78    1.13
   0  -2   5   44.54    1.08
   0  -2   5   43.63    1.07
   0  -2   5   44.18    1.08
   0  -2   5   45.38    1.07
  -1   2  -5   70.00    1.74
  -1   2  -5   69.49    1.82
  -1   2  -5   70.00    1.70
  -1   2  -5   70.55    2.06
  -1   2  -5   71.43    1.82
   1  -2   5   72.07    1.56
   1  -2   5   70.18    1.71
   1  -2   5   70.28    1.74
   1  -2   5   69.44    1.56
   1  -2   5   71.32    1.63
   1  -2   5   72.06    1.71
   1  -2   5   70.06    1.81
   1  -2   5   70.57    1.74
   1  -2   5   70.52    1.81
  -2   2  -5   66.64    1.64
  -2   2  -5   66.60    1.48
  -2   2  -5   67.54    1.57
  -2   2  -5   66.74    1.68
  -2   2  -5   69.43    2.00
  -2   2  -5   66.45    1.76
  -2   2  -5   65.82    1.99
  -2   2  -5   68.55    1.68
  -2   2  -5   66.66    1.47
  -2   2  -5   66.55    1.76
  -2   2  -5   67.11    1.99
   2  -2   5   66.48    1.68
   2  -2   5   66.71    1.75
   2  -2   5   66.94    1.57
   2  -2   5   65.02    1.65
   2  -2   5   68.22    1.62
   2  -2   5   68.22    1.41
   2  -2   5   66.46    1.51
  -3   2  -5    3.40    0.19
  -3   2  -5    3.54    0.13
  -3   2  -5    3.46    0.23
  -3   2  -5    3.90    0.24
  -3   2  -5    3.35    0.20
  -3   2  -5    3.33    0.19
  -3   2  -5    3.54    0.21
   3  -2   5    3.49    0.14
   3  -2   5    3.76    0.17
   3  -2   5    3.57    0.18
   3  -2   5    3.58    0.18
   3  -2   5    3.54    0.19
   3  -2   5    3.81    0.21
   3  -2   5    3.66    0.16
  -4   2  -5   -0.08    0.11
  -4   2  -5    0.17    0.13
  -4   2  -5    0.18    0.12
   4  -2   5    0.07    0.11
   4  -2   5    0.08    0.11
   4  -2   5   -0.05    0.08
   5   1  -5   -0.10    0.12
   5   1  -5    0.05    0.13
  -5  -1   5    0.12    0.13
   4   1  -5    1.96    0.16
   4   1  -5    2.17    0.12
   4   1  -5    1.93    0.20
   4   1  -5    2.04    0.15
   4   1  -5    1.71    0.15
   4   1  -5    1.78    0.17
  -4  -1   5    2.04    0.16
  -4  -1   5    1.86    0.15
  -4  -1   5    2.02    0.16
   3   1  -5   20.38    0.60
   3   1  -5   21.21    0.56
   3   1  -5   20.79    0.57
   3   1  -5   20.15    0.68
   3   1  -5   20.54    0.68
   3   1  -5   20.13    0.60
   3   1  -5   20.78    0.57
   3   1  -5   20.99    0.57
   3   1  -5   20.59    0.48
  -3  -1   5   20.41    0.51
  -3  -1   5   20.53    0.54
  -3  -1   5   20.62    0.57
  -3  -1   5   20.61    0.57
  -3  -1   5   20.69    0.59
  -3  -1   5   20.32    0.56
   2   1  -5   31.65    0.84
   2   1  -5   30.72    0.95
   2   1  -5   31.65    0.78
   2   1  -5   32.83    0.81
   2   1  -5   31.24    0.95
   2   1  -5   31.00    0.80
   2   1  -5   32.21    0.80
   2   1  -5   31.10    0.84
  -2  -1   5   30.41    0.79
  -2  -1   5   31.41    0.66
  -2  -1   5   30.45    0.80
  -2  -1   5   32.18    0.79
  -2  -1   5   31.41    0.84
  -2  -1   5   31.32    0.72
  -2  -1   5   31.96    0.81
   1   1  -5    0.32    0.04
   1   1  -5    0.32    0.03
   1   1  -5    0.26    0.03
   1   1  -5    0.29    0.04
   1   1  -5    0.28    0.04
   1   1  -5    0.38    0.04
  -1  -1   5    0.31    0.03
  -1  -1   5    0.27    0.05
  -1  -1   5    0.26    0.03
  -1  -1   5    0.32    0.03
  -1  -1   5    0.23    0.03
  -1  -1   5    0.31    0.03
  -1  -1   5    0.25    0.03
   0   1  -5  127.41    3.23
   0   1  -5  126.88    3.23
   0   1  -5  127.82    3.10
   0   1  -5  127.73    3.09
   0  -1   5  128.27    3.10
   0  -1   5  127.39    3.04
   0  -1   5  122.62    3.10
   0  -1   5  127.75    3.04
   0  -1   5  130.15    2.88
  -1   1  -5    2.05    0.10
  -1   1  -5    2.19    0.10
  -1   1  -5    2.36    0.11
  -1   1  -5    2.14    0.12
  -1   1  -5    2.26    0.11
  -1   1  -5    2.38    0.13
  -1   1  -5    2.22    0.09
   1  -1   5    2.39    0.10
   1  -1   5    2.20    0.10
   1  -1   5    2.16    0.10
   1  -1   5    2.01    0.10
   1  -1   5    2.17    0.10
   1  -1   5    2.30    0.10
   1  -1   5    2.12    0.10
   1  -1   5    2.13    0.08
  -2   1  -5    3.57    0.11
  -2   1  -5    3.78    0.16
  -2   1  -5    3.54    0.17
  -2   1  -5    3.65    0.20
  -2   1  -5    3.88    0.16
  -2   1  -5    3.53    0.15
  -2   1  -5    3.74    0.16
  -2   1  -5    3.51    0.17
  -2   1  -5    3.69    0.11
   2  -1   5    3.52    0.16
   2  -1   5    3.48    0.15
   2  -1   5    3.62    0.15
   2  -1   5    3.68    0.17
   2  -1   5    3.83    0.17
   2  -1   5    3.49    0.14
   2  -1   5    3.92    0.12
   2  -1   5    3.64    0.16
  -3   1  -5    2.31    0.22
  -3   1  -5    2.12    0.20
  -3   1  -5    2.12    0.19
  -3   1  -5    2.43    0.18
  -3   1  -5    2.18    0.15
  -3   1  -5    2.24    0.12
  -3   1  -5    2.46    0.16
  -3   1  -5    2.36    0.18
   3  -1   5    2.11    0.16
   3  -1   5    2.26    0.17
   3  -1   5    2.29    0.16
   3  -1   5    2.15    0.14
   3  -1   5    2.00    0.15
   3  -1   5    2.28    0.12
   3  -1   5    2.03    0.14
  -4   1  -5    3.81    0.26
  -4   1  -5    3.88    0.24
  -4   1  -5    4.00    0.23
   4  -1   5    4.04    0.24
   4  -1   5    4.06    0.23
   4  -1   5    3.84    0.18
   5   0  -5    0.91    0.15
   5   0  -5    0.54    0.14
  -5   0   5    0.60    0.14
  -5   0   5    0.65    0.14
   4   0  -5    6.31    0.33
   4   0  -5    6.88    0.26
   4   0  -5    6.66    0.21
   4   0  -5    5.57    0.25
   4   0  -5    6.53    0.28
   4   0  -5    6.30    0.28
  -4   0   5    6.49    0.26
  -4   0   5    6.56    0.26
  -4   0   5    6.39    0.27
   3   0  -5    6.60    0.18
   3   0  -5    6.28    0.28
   3   0  -5    6.54    0.25
   3   0  -5    6.76    0.25
   3   0  -5    6.44    0.25
   3   0  -5    6.28    0.23
   3   0  -5    6.76    0.29
   3   0  -5    6.57    0.23
   3   0  -5    7.20    0.25
  -3   0   5    6.57    0.22
  -3   0   5    6.52    0.24
  -3   0   5    6.45    0.23
  -3   0   5    6.82    0.21
  -3   0   5    6.59    0.25
  -3   0   5    6.60    0.24
   2   0  -5   68.90    1.79
   2   0  -5   69.09    1.71
   2   0  -5   69.97    1.68
   2   0  -5   70.10    1.71
   2   0  -5   69.44    2.03
   2   0  -5   68.62    2.03
   2   0  -5   67.69    1.79
  -2   0   5   69.41    1.59
  -2   0   5   68.31    1.54
  -2   0   5   67.13    1.71
  -2   0   5   69.34    1.43
  -2   0   5   67.58    1.78
  -2   0   5   68.95    1.78
  -2   0   5   67.54    1.68
  -2   0   5   69.69    1.69
  -2   0   5   70.78    1.68
   1   0  -5   31.04    0.80
   1   0  -5   31.17    0.90
   1   0  -5   29.89    0.75
   1   0  -5   31.24    0.80
   1   0  -5   30.16    0.76
   1   0  -5   30.27    0.91
   1   0  -5   31.31    0.77
  -1   0   5   30.13    0.80
  -1   0   5   31.13    0.79
  -1   0   5   30.79    0.77
  -1   0   5   31.09    0.77
  -1   0   5   30.20    0.75
  -1   0   5   31.00    0.68
  -1   0   5   30.24    0.75
  -1   0   5   30.72    0.77
   0   0  -5   11.56    0.30
   0   0  -5   11.12    0.28
   0   0  -5   11.44    0.32
   0   0  -5   11.44    0.35
   0   0  -5   11.32    0.35
   0   0  -5   11.50    0.28
   0   0  -5   11.90    0.32
   0   0  -5   10.96    0.31
   0   0   5   11.61    0.27
   0   0   5   11.37    0.31
   0   0   5   11.58    0.30
   0   0   5   11.50    0.31
   0   0   5   12.00    0.30
   0   0   5   11.34    0.30
   0   0   5   11.48    0.32
  -1   0  -5    2.59    0.11
  -1   0  -5    2.45    0.14
  -1   0  -5    2.57    0.13
  -1   0  -5    2.48    0.11
  -1   0  -5    2.54    0.11
  -1   0  -5    2.40    0.13
  -1   0  -5    2.60    0.10
  -1   0  -5    2.46    0.12
   1   0   5    2.55    0.10
   1   0   5    2.60    0.12
   1   0   5    2.51    0.12
   1   0   5    2.48    0.06
   1   0   5    2.53    0.10
   1   0   5    2.44    0.11
   1   0   5    2.58    0.11
   1   0   5    2.54    0.06
   1   0   5    2.61    0.11
  -2   0  -5   12.46    0.39
  -2   0  -5   12.27    0.30
  -2   0  -5   12.62    0.36
  -2   0  -5   11.84    0.36
  -2   0  -5   12.31    0.34
  -2   0  -5   12.79    0.44
  -2   0  -5   12.31    0.37
  -2   0  -5   12.24    0.30
  -2   0  -5   12.15    0.39
   2   0   5   11.86    0.32
   2   0   5   11.97    0.38
   2   0   5   12.41    0.36
   2   0   5   12.31    0.36
   2   0   5   12.50    0.29
   2   0   5   11.83    0.36
  -3   0  -5   14.90    0.38
  -3   0  -5   14.92    0.49
  -3   0  -5   15.29    0.55
  -3   0  -5   14.51    0.44
  -3   0  -5   14.75    0.54
  -3   0  -5   14.74    0.46
  -3   0  -5   15.46    0.49
   3   0   5   14.67    0.43
   3   0   5   14.69    0.45
   3   0   5   13.82    0.40
   3   0   5   14.18    0.44
   3   0   5   14.28    0.36
  -4   0  -5    1.93    0.18
  -4   0  -5    2.50    0.20
   4   0   5    2.19    0.15
   4   0   5    2.09    0.18
   4   0   5    2.34    0.19
   5  -1  -5    2.31    0.19
   5  -1  -5    2.57    0.20
  -5   1   5    2.35    0.20
  -5   1   5    2.32    0.20
   4  -1  -5   -0.03    0.10
   4  -1  -5    0.03    0.10
   4  -1  -5   -0.03    0.13
   4  -1  -5   -0.03    0.10
   4  -1  -5    0.02    0.07
   4  -1  -5    0.06    0.10
  -4   1   5    0.00    0.08
  -4   1   5    0.10    0.09
  -4   1   5   -0.01    0.10
  -4   1   5    0.09    0.10
   3  -1  -5    7.31    0.25
   3  -1  -5    6.88    0.24
   3  -1  -5    7.11    0.20
   3  -1  -5    6.95    0.25
   3  -1  -5    6.73    0.26
   3  -1  -5    6.61    0.29
   3  -1  -5    7.14    0.24
   3  -1  -5    6.78    0.26
   3  -1  -5    6.80    0.29
  -3   1   5    6.75    0.24
  -3   1   5    6.71    0.21
  -3   1   5    6.79    0.22
  -3   1   5    6.85    0.26
  -3   1   5    6.68    0.24
  -3   1   5    7.02    0.23
  -3   1   5    6.36    0.24
   2  -1  -5   42.37    1.11
   2  -1  -5   41.59    1.26
   2  -1  -5   42.01    1.06
   2  -1  -5   41.68    1.04
   2  -1  -5   43.03    1.06
   2  -1  -5   42.22    1.11
   2  -1  -5   41.96    0.93
   2  -1  -5   41.48    1.26
  -2   1   5   41.91    1.11
  -2   1   5   41.96    1.11
  -2   1   5   42.55    1.05
  -2   1   5   41.30    1.06
  -2   1   5   42.67    1.06
  -2   1   5   42.37    0.88
  -2   1   5   41.64    1.04
  -2   1   5   42.23    0.98
  -2   1   5   40.95    0.95
  -2   1   5   41.03    0.95
   1  -1  -5   26.93    0.72
   1  -1  -5   26.96    0.68
   1  -1  -5   27.58    0.72
   1  -1  -5   26.76    0.66
   1  -1  -5   27.34    0.81
   1  -1  -5   25.43    0.81
  -1   1   5   27.23    0.71
  -1   1   5   27.14    0.61
  -1   1   5   26.64    0.68
  -1   1   5   26.51    0.67
  -1   1   5   27.32    0.61
  -1   1   5   26.88    0.68
  -1   1   5   26.80    0.62
  -1   1   5   26.60    0.72
  -1   1   5   28.30    0.67
  -1   1   5   26.16    0.67
   0  -1  -5    7.34    0.25
   0  -1  -5    7.40    0.24
   0  -1  -5    7.29    0.20
   0  -1  -5    7.36    0.23
   0  -1  -5    7.34    0.23
   0  -1  -5    7.39    0.26
   0   1   5    7.31    0.21
   0   1   5    7.46    0.22
   0   1   5    7.56    0.19
   0   1   5    6.97    0.22
   0   1   5    7.56    0.23
   0   1   5    7.40    0.24
   0   1   5    6.96    0.21
  -1  -1  -5   50.75    1.17
  -1  -1  -5   51.04    1.52
  -1  -1  -5   49.77    1.25
  -1  -1  -5   50.93    1.51
  -1  -1  -5   50.72    1.12
  -1  -1  -5   50.75    1.33
  -1  -1  -5   50.87    1.27
  -1  -1  -5   50.66    1.34
  -1  -1  -5   50.73    1.12
  -1  -1  -5   50.90    1.28
   1   1   5   49.58    1.25
   1   1   5   52.00    1.06
   1   1   5   51.09    1.33
   1   1   5   51.38    1.16
   1   1   5   49.92    1.06
   1   1   5   50.22    1.33
   1   1   5   51.07    1.28
   1   1   5   51.34    1.25
  -2  -1  -5   19.76    0.53
  -2  -1  -5   19.73    0.65
  -2  -1  -5   19.73    0.50
  -2  -1  -5   18.96    0.54
  -2  -1  -5   19.00    0.57
  -2  -1  -5   19.70    0.46
  -2  -1  -5   19.95    0.47
  -2  -1  -5   19.93    0.58
  -2  -1  -5   19.20    0.54
   2   1   5   18.46    0.49
   2   1   5   20.32    0.57
   2   1   5   20.29    0.54
   2   1   5   19.05    0.53
   2   1   5   19.86    0.55
   2   1   5   19.11    0.44
  -3  -1  -5    2.36    0.16
  -3  -1  -5    2.32    0.19
  -3  -1  -5    2.65    0.17
  -3  -1  -5    2.66    0.13
  -3  -1  -5    2.71    0.19
   3   1   5    2.45    0.17
   3   1   5    2.52    0.17
   3   1   5    2.47    0.13
   3   1   5    2.60    0.15
   3   1   5    2.80    0.18
  -4  -1  -5    0.15    0.12
  -4  -1  -5   -0.14    0.11
   4   1   5   -0.04    0.12
   4   1   5    0.29    0.13
   4   1   5   -0.15    0.08
   5  -2  -5    0.14    0.13
   5  -2  -5    0.15    0.13
  -5   2   5    0.13    0.13
  -5   2   5   -0.08    0.12
   4  -2  -5    2.65    0.18
   4  -2  -5    2.51    0.22
   4  -2  -5    2.46    0.19
   4  -2  -5    2.39    0.18
   4  -2  -5    2.65    0.14
  -4   2   5    2.12    0.15
  -4   2   5    2.77    0.18
  -4   2   5    2.62    0.19
  -4   2   5    2.74    0.18
   3  -2  -5   11.67    0.38
   3  -2  -5   10.97    0.35
   3  -2  -5   11.08    0.42
   3  -2  -5   11.28    0.34
   3  -2  -5   11.28    0.43
   3  -2  -5   11.00    0.37
   3  -2  -5   11.11    0.29
   3  -2  -5   11.35    0.36
  -3   2   5   10.99    0.31
  -3   2   5   11.56    0.37
  -3   2   5   11.28    0.35
  -3   2   5   11.05    0.31
  -3   2   5   10.67    0.34
  -3   2   5   11.28    0.32
  -3   2   5   10.94    0.35
   2  -2  -5    0.97    0.08
   2  -2  -5    0.98    0.12
   2  -2  -5    0.84    0.08
   2  -2  -5    1.03    0.09
   2  -2  -5    0.93    0.06
   2  -2  -5    0.87    0.09
   2  -2  -5    1.00    0.10
   2  -2  -5    0.77    0.08
  -2   2   5    0.94    0.07
  -2   2   5    0.92    0.07
  -2   2   5    0.91    0.08
  -2   2   5    1.03    0.09
  -2   2   5    0.92    0.08
  -2   2   5    0.85    0.07
  -2   2   5    0.82    0.08
  -2   2   5    0.84    0.08
   1  -2  -5    8.00    0.25
   1  -2  -5    8.62    0.30
   1  -2  -5    8.17    0.24
   1  -2  -5    8.39    0.25
   1  -2  -5    8.22    0.26
   1  -2  -5    8.29    0.31
   1  -2  -5    8.54    0.26
  -1   2   5    8.20    0.22
  -1   2   5    8.53    0.25
  -1   2   5    8.45    0.18
  -1   2   5    8.62    0.25
  -1   2   5    8.26    0.25
  -1   2   5    8.30    0.24
  -1   2   5    8.54    0.25
  -1   2   5    8.41    0.22
  -1   2   5    8.15    0.26
   0  -2  -5   42.18    1.29
   0  -2  -5   43.06    1.07
   0  -2  -5   43.33    0.99
   0  -2  -5   44.43    1.16
   0  -2  -5   43.61    1.31
   0  -2  -5   43.04    1.09
   0  -2  -5   43.95    1.12
   0  -2  -5   43.14    1.16
   0   2   5   45.49    1.12
   0   2   5   44.27    1.10
   0   2   5   42.58    1.08
   0   2   5   42.72    1.15
   0   2   5   42.84    1.14
   0   2   5   42.75    0.98
   0   2   5   43.69    0.90
   0   2   5   42.03    1.09
   0   2   5   45.14    0.90
  -1  -2  -5   28.44    0.74
  -1  -2  -5   27.68    0.78
  -1  -2  -5   27.87    0.73
  -1  -2  -5   28.93    0.67
  -1  -2  -5   27.02    0.74
  -1  -2  -5   28.50    0.88
  -1  -2  -5   28.54    0.78
  -1  -2  -5   29.48    0.90
  -1  -2  -5   28.38    0.78
  -1  -2  -5   28.41    0.64
   1   2   5   27.09    0.68
   1   2   5   28.36    0.61
   1   2   5   28.82    0.77
   1   2   5   27.87    0.74
   1   2   5   28.18    0.73
   1   2   5   28.14    0.78
  -2  -2  -5    0.33    0.08
  -2  -2  -5    0.32    0.06
  -2  -2  -5    0.30    0.08
  -2  -2  -5    0.41    0.10
  -2  -2  -5    0.49    0.08
  -2  -2  -5    0.28    0.07
  -2  -2  -5    0.23    0.11
  -2  -2  -5    0.41    0.09
  -2  -2  -5    0.32    0.08
   2   2   5    0.38    0.09
   2   2   5    0.36    0.06
   2   2   5    0.42    0.09
   2   2   5    0.33    0.07
   2   2   5    0.29    0.08
   2   2   5    0.40    0.09
  -3  -2  -5    5.36    0.18
  -3  -2  -5    4.98    0.25
  -3  -2  -5    4.97    0.23
  -3  -2  -5    4.66    0.23
   3   2   5    4.45    0.23
   3   2   5    5.14    0.18
   3   2   5    4.91    0.23
   3   2   5    4.80    0.21
  -4  -2  -5    6.53    0.31
  -4  -2  -5    7.07    0.31
   4   2   5    7.01    0.24
   4   2   5    7.00    0.32
   4   2   5    6.79    0.30
   5  -3  -5    0.08    0.14
   5  -3  -5    0.05    0.13
  -5   3   5    0.25    0.13
  -5   3   5    0.20    0.14
   4  -3  -5   28.26    0.82
   4  -3  -5   27.08    0.77
   4  -3  -5   27.79    0.93
   4  -3  -5   28.25    0.76
  -4   3   5   26.36    0.75
  -4   3   5   28.18    0.78
  -4   3   5   26.43    0.76
  -4   3   5   27.31    0.69
   3  -3  -5    3.22    0.22
   3  -3  -5    3.14    0.18
   3  -3  -5    3.05    0.18
   3  -3  -5    3.11    0.13
   3  -3  -5    3.21    0.23
   3  -3  -5    3.27    0.18
   3  -3  -5    3.01    0.18
   3  -3  -5    3.05    0.16
  -3   3   5    3.03    0.15
  -3   3   5    3.05    0.17
  -3   3   5    3.09    0.16
  -3   3   5    3.18    0.15
  -3   3   5    3.24    0.18
  -3   3   5    2.95    0.15
  -3   3   5    3.13    0.18
   2  -3  -5   34.12    0.85
   2  -3  -5   32.19    0.88
   2  -3  -5   31.84    1.00
   2  -3  -5   31.54    0.74
   2  -3  -5   32.25    0.84
   2  -3  -5   31.87    1.00
   2  -3  -5   32.40    0.82
   2  -3  -5   32.39    0.77
   2  -3  -5   32.99    0.88
  -2   3   5   32.41    0.88
  -2   3   5   31.98    0.76
  -2   3   5   32.46    0.84
  -2   3   5   31.31    0.83
  -2   3   5   32.05    0.88
  -2   3   5   32.19    0.76
  -2   3   5   32.61    0.83
  -2   3   5   31.85    0.75
   1  -3  -5   48.43    1.20
   1  -3  -5   49.12    1.30
   1  -3  -5   49.00    1.29
   1  -3  -5   49.06    1.23
   1  -3  -5   48.53    1.47
   1  -3  -5   47.38    1.11
   1  -3  -5   50.40    1.46
   1  -3  -5   47.69    1.24
  -1   3   5   49.19    1.02
  -1   3   5   48.92    1.24
  -1   3   5   50.33    1.22
  -1   3   5   48.90    1.28
  -1   3   5   48.32    1.11
  -1   3   5   48.54    1.02
  -1   3   5   48.24    1.10
  -1   3   5   48.48    1.30
   0  -3  -5   14.61    0.42
   0  -3  -5   14.64    0.35
   0  -3  -5   14.96    0.44
   0  -3  -5   14.94    0.45
   0  -3  -5   14.47    0.52
   0  -3  -5   14.86    0.46
   0  -3  -5   14.43    0.41
   0  -3  -5   14.77    0.49
   0   3   5   14.79    0.42
   0   3   5   15.63    0.33
   0   3   5   14.51    0.37
   0   3   5   14.96    0.33
   0   3   5   14.75    0.36
   0   3   5   14.71    0.43
   0   3   5   14.23    0.44
   0   3   5   15.64    0.44
  -1  -3  -5    0.42    0.09
  -1  -3  -5    0.51    0.07
  -1  -3  -5    0.60    0.12
  -1  -3  -5    0.42    0.05
  -1  -3  -5    0.54    0.06
  -1  -3  -5    0.36    0.08
  -1  -3  -5    0.43    0.08
  -1  -3  -5    0.58    0.09
  -1  -3  -5    0.62    0.09
   1   3   5    0.39    0.07
   1   3   5    0.58    0.09
   1   3   5    0.58    0.05
   1   3   5    0.42    0.08
   1   3   5    0.48    0.08
   1   3   5    0.72    0.09
   1   3   5    0.49    0.08
   1   3   5    0.53    0.08
  -2  -3  -5   19.81    0.50
  -2  -3  -5   19.45    0.67
  -2  -3  -5   18.93    0.56
  -2  -3  -5   19.59    0.59
  -2  -3  -5   19.49    0.55
  -2  -3  -5   19.45    0.59
  -2  -3  -5   19.45    0.66
  -2  -3  -5   18.83    0.54
  -2  -3  -5   19.62    0.48
   2   3   5   18.84    0.55
   2   3   5   19.48    0.45
   2   3   5   19.10    0.56
   2   3   5   19.77    0.57
   2   3   5   19.22    0.51
   2   3   5   19.70    0.59
  -3  -3  -5    8.88    0.36
  -3  -3  -5    8.13    0.32
  -3  -3  -5    9.19    0.33
   3   3   5    8.85    0.33
   3   3   5    9.35    0.26
   3   3   5    8.70    0.30
   3   3   5    8.94    0.34
  -4  -3  -5    1.59    0.18
  -4  -3  -5    1.25    0.17
   4   3   5    1.80    0.19
   4   3   5    1.33    0.12
   4   3   5    1.14    0.16
   5  -4  -5    2.03    0.19
   5  -4  -5    1.76    0.19
  -5   4   5    1.36    0.18
  -5   4   5    1.72    0.19
   4  -4  -5    0.47    0.13
   4  -4  -5    0.54    0.12
   4  -4  -5    0.46    0.13
  -4   4   5    0.38    0.10
  -4   4   5    0.32    0.11
  -4   4   5    0.48    0.13
  -4   4   5    0.42    0.11
   3  -4  -5   17.85    0.64
   3  -4  -5   18.46    0.53
   3  -4  -5   18.39    0.52
   3  -4  -5   18.43    0.63
   3  -4  -5   17.84    0.47
   3  -4  -5   17.96    0.56
   3  -4  -5   18.22    0.56
   3  -4  -5   18.29    0.46
  -3   4   5   18.21    0.47
  -3   4   5   17.86    0.47
  -3   4   5   17.94    0.52
  -3   4   5   17.73    0.52
  -3   4   5   18.26    0.53
  -3   4   5   18.69    0.48
  -3   4   5   17.67    0.55
   2  -4  -5   37.99    0.87
   2  -4  -5   39.69    1.00
   2  -4  -5   37.75    0.90
   2  -4  -5   38.81    1.04
   2  -4  -5   37.19    0.99
   2  -4  -5   38.13    0.97
   2  -4  -5   36.72    1.17
   2  -4  -5   38.37    1.18
   2  -4  -5   37.95    1.04
  -2   4   5   38.22    1.04
  -2   4   5   38.24    0.90
  -2   4   5   37.90    0.99
  -2   4   5   37.44    0.97
  -2   4   5   38.68    0.98
  -2   4   5   38.62    1.03
  -2   4   5   36.73    0.88
   1  -4  -5    7.41    0.26
   1  -4  -5    7.28    0.30
   1  -4  -5    7.62    0.30
   1  -4  -5    7.52    0.28
   1  -4  -5    7.24    0.19
   1  -4  -5    6.89    0.26
   1  -4  -5    7.24    0.28
   1  -4  -5    7.72    0.24
   1  -4  -5    7.12    0.19
  -1   4   5    7.38    0.22
  -1   4   5    7.43    0.27
  -1   4   5    7.29    0.26
  -1   4   5    7.05    0.22
  -1   4   5    7.42    0.19
  -1   4   5    6.85    0.26
  -1   4   5    7.46    0.26
   0  -4  -5    2.93    0.15
   0  -4  -5    3.18    0.18
   0  -4  -5    3.50    0.23
   0  -4  -5    3.25    0.11
   0  -4  -5    3.21    0.18
   0  -4  -5    3.24    0.17
   0  -4  -5    3.01    0.16
   0  -4  -5    3.42    0.19
   0   4   5    3.29    0.17
   0   4   5    3.04    0.11
   0   4   5    3.09    0.16
   0   4   5    3.38    0.18
   0   4   5    3.26    0.18
   0   4   5    3.07    0.13
   0   4   5    3.17    0.14
  -1  -4  -5   23.56    0.87
  -1  -4  -5   26.65    0.84
  -1  -4  -5   27.11    0.76
  -1  -4  -5   25.69    0.75
  -1  -4  -5   26.35    0.71
  -1  -4  -5   26.74    0.73
  -1  -4  -5   26.25    0.62
  -1  -4  -5   25.85    0.72
   1   4   5   26.35    0.71
   1   4   5   26.30    0.72
   1   4   5   26.11    0.74
   1   4   5   26.78    0.70
   1   4   5   25.71    0.65
   1   4   5   26.89    0.78
   1   4   5   26.00    0.58
  -2  -4  -5    8.39    0.33
  -2  -4  -5    8.15    0.30
  -2  -4  -5    8.67    0.38
  -2  -4  -5    8.03    0.31
  -2  -4  -5    8.49    0.37
  -2  -4  -5    8.50    0.26
  -2  -4  -5    8.38    0.27
  -2  -4  -5    8.67    0.33
   2   4   5    8.63    0.31
   2   4   5    8.27    0.28
   2   4   5    8.64    0.33
   2   4   5    8.17    0.31
   2   4   5    8.29    0.31
   2   4   5    8.78    0.24
   2   4   5    8.09    0.30
  -3  -4  -5   -0.04    0.11
  -3  -4  -5   -0.04    0.10
  -3  -4  -5   -0.03    0.10
   3   4   5   -0.06    0.10
   3   4   5    0.05    0.08
   3   4   5   -0.14    0.10
  -4  -4  -5    2.42    0.22
  -4  -4  -5    2.16    0.21
   4   4   5    2.90    0.17
   4   4   5    2.02    0.20
   4   4   5    2.49    0.22
   5  -5  -5    0.26    0.15
   5  -5  -5    0.24    0.15
  -5   5   5    0.28    0.15
  -5   5   5    0.18    0.15
   4  -5  -5   16.50    0.55
   4  -5  -5   15.91    0.51
   4  -5  -5   16.31    0.47
   4  -5  -5   17.16    0.52
  -4   5   5   15.65    0.51
  -4   5   5   16.33    0.53
  -4   5   5   16.73    0.50
   3  -5  -5    4.41    0.18
   3  -5  -5    4.42    0.27
   3  -5  -5    4.60    0.21
   3  -5  -5    3.91    0.20
   3  -5  -5    4.46    0.23
   3  -5  -5    4.26    0.17
   3  -5  -5    4.29    0.27
   3  -5  -5    3.73    0.22
  -3   5   5    4.12    0.18
  -3   5   5    3.89    0.21
  -3   5   5    4.04    0.21
  -3   5   5    4.61    0.19
  -3   5   5    3.93    0.21
  -3   5   5    4.63    0.20
   2  -5  -5    1.68    0.16
   2  -5  -5    1.54    0.10
   2  -5  -5    1.33    0.13
   2  -5  -5    1.56    0.10
   2  -5  -5    1.45    0.12
   2  -5  -5    1.60    0.15
   2  -5  -5    1.53    0.13
   2  -5  -5    1.51    0.10
   2  -5  -5    1.62    0.12
   2  -5  -5    1.58    0.12
  -2   5   5    1.48    0.13
  -2   5   5    1.61    0.13
  -2   5   5    1.70    0.13
  -2   5   5    1.43    0.11
  -2   5   5    1.59    0.13
  -2   5   5    1.35    0.10
   1  -5  -5    2.10    0.19
   1  -5  -5    1.87    0.09
   1  -5  -5    2.14    0.15
   1  -5  -5    1.53    0.15
   1  -5  -5    1.79    0.09
   1  -5  -5    1.95    0.18
   1  -5  -5    2.12    0.17
   1  -5  -5    2.16    0.16
   1  -5  -5    1.86    0.13
  -1   5   5    1.35    0.13
  -1   5   5    1.94    0.15
  -1   5   5    1.79    0.11
  -1   5   5    1.78    0.15
  -1   5   5    1.99    0.15
  -1   5   5    1.92    0.11
   0  -5  -5   16.04    0.41
   0  -5  -5   17.07    0.50
   0  -5  -5   17.16    0.53
   0  -5  -5   15.85    0.52
   0  -5  -5   16.31    0.57
   0  -5  -5   16.44    0.49
   0  -5  -5   16.25    0.59
   0  -5  -5   16.86    0.48
   0   5   5   16.28    0.49
   0   5   5   17.29    0.51
   0   5   5   16.96    0.43
   0   5   5   16.67    0.44
   0   5   5   16.90    0.52
   0   5   5   17.25    0.51
   0   5   5   16.47    0.38
  -1  -5  -5    9.93    0.33
  -1  -5  -5    9.36    0.36
  -1  -5  -5    9.53    0.35
  -1  -5  -5   10.17    0.27
  -1  -5  -5    9.26    0.38
  -1  -5  -5    8.58    0.41
  -1  -5  -5    9.39    0.36
  -1  -5  -5    9.33    0.35
   1   5   5    9.81    0.34
   1   5   5   10.02    0.31
   1   5   5    9.72    0.33
   1   5   5    9.54    0.34
   1   5   5   10.06    0.34
   1   5   5    9.56    0.28
   1   5   5    9.94    0.26
   1   5   5    9.67    0.39
  -2  -5  -5    0.08    0.10
  -2  -5  -5    0.09    0.10
  -2  -5  -5    0.10    0.14
  -2  -5  -5   -0.02    0.08
  -2  -5  -5    0.11    0.10
  -2  -5  -5    0.17    0.10
   2   5   5    0.18    0.11
   2   5   5    0.07    0.10
   2   5   5   -0.13    0.09
   2   5   5    0.03    0.07
   2   5   5    0.12    0.10
  -3  -5  -5    6.01    0.30
  -3  -5  -5    7.01    0.30
   3   5   5    6.89    0.23
   3   5   5    5.92    0.28
   3   5   5    6.72    0.31
  -4  -5  -5    2.27    0.21
  -4  -5  -5    2.24    0.22
   4   5   5    2.50    0.23
   4   5   5    2.38    0.22
   4   5   5    2.18    0.15
   5  -6  -5    3.40    0.26
   5  -6  -5    3.22    0.24
  -5   6   5    3.31    0.26
  -5   6   5    3.38    0.26
   4  -6  -5    1.66    0.14
   4  -6  -5    1.87    0.18
   4  -6  -5    2.17    0.19
  -4   6   5    1.93    0.18
  -4   6   5    1.90    0.18
  -4   6   5    1.66    0.15
   3  -6  -5    0.92    0.13
   3  -6  -5    0.96    0.13
   3  -6  -5    1.00    0.10
   3  -6  -5    1.23    0.10
   3  -6  -5    0.95    0.15
   3  -6  -5    0.98    0.13
  -3   6   5    1.04    0.11
  -3   6   5    1.06    0.12
  -3   6   5    1.10    0.14
  -3   6   5    0.92    0.13
  -3   6   5    1.08    0.12
   2  -6  -5   12.72    0.34
   2  -6  -5   12.31    0.34
   2  -6  -5   12.43    0.34
   2  -6  -5   12.56    0.39
   2  -6  -5   12.27    0.48
   2  -6  -5   13.09    0.43
   2  -6  -5   12.71    0.41
   2  -6  -5   12.59    0.49
   2  -6  -5   13.03    0.44
  -2   6   5   12.67    0.43
  -2   6   5   12.26    0.42
  -2   6   5   12.11    0.36
  -2   6   5   12.84    0.41
  -2   6   5   12.87    0.41
  -2   6   5   13.22    0.36
   1  -6  -5   25.54    0.82
   1  -6  -5   25.10    0.59
   1  -6  -5   21.86    0.73
   1  -6  -5   22.43    0.70
   1  -6  -5   24.43    0.67
   1  -6  -5   24.13    0.69
   1  -6  -5   25.08    0.81
   1  -6  -5   24.54    0.60
   1  -6  -5   23.71    0.76
  -1   6   5   24.70    0.69
  -1   6   5   24.17    0.71
  -1   6   5   25.24    0.61
  -1   6   5   24.88    0.61
  -1   6   5   25.07    0.72
   0  -6  -5    5.26    0.18
   0  -6  -5    5.49    0.23
   0  -6  -5    5.27    0.24
   0  -6  -5    5.94    0.24
   0  -6  -5    5.04    0.27
   0  -6  -5    5.25    0.29
   0  -6  -5    5.65    0.27
   0  -6  -5    5.42    0.25
   0   6   5    5.38    0.19
   0   6   5    5.55    0.25
   0   6   5    5.26    0.24
   0   6   5    5.26    0.17
   0   6   5    5.47    0.24
   0   6   5    5.23    0.20
   0   6   5    5.45    0.25
  -1  -6  -5    1.97    0.19
  -1  -6  -5    1.88    0.12
  -1  -6  -5    1.65    0.17
  -1  -6  -5    1.91    0.21
  -1  -6  -5    1.77    0.17
  -1  -6  -5    2.01    0.18
  -1  -6  -5    1.55    0.15
   1   6   5    1.71    0.15
   1   6   5    1.92    0.11
   1   6   5    1.95    0.15
   1   6   5    2.06    0.14
   1   6   5    2.03    0.19
   1   6   5    1.88    0.16
  -2  -6  -5    4.26    0.25
  -2  -6  -5    4.02    0.25
  -2  -6  -5    3.81    0.19
  -2  -6  -5    4.37    0.24
   2   6   5    4.12    0.21
   2   6   5    4.39    0.25
   2   6   5    4.10    0.17
   2   6   5    4.07    0.23
  -3  -6  -5    3.70    0.25
  -3  -6  -5    4.09    0.25
   3   6   5    4.03    0.25
   3   6   5    3.94    0.26
   3   6   5    3.86    0.24
   3   6   5    3.93    0.18
   5  -7  -5    0.82    0.19
   5  -7  -5    0.71    0.17
  -5   7   5    0.87    0.18
  -5   7   5    0.50    0.17
   4  -7  -5    0.86    0.12
   4  -7  -5    1.09    0.17
   4  -7  -5    0.92    0.15
  -4   7   5    0.93    0.13
  -4   7   5    0.99    0.16
  -4   7   5    1.20    0.16
   3  -7  -5    9.44    0.38
   3  -7  -5    9.71    0.30
   3  -7  -5    9.12    0.35
   3  -7  -5    9.15    0.34
  -3   7   5    9.49    0.34
  -3   7   5    9.34    0.31
  -3   7   5    8.98    0.35
  -3   7   5    9.47    0.35
   2  -7  -5   12.77    0.45
   2  -7  -5   12.83    0.41
   2  -7  -5   12.76    0.51
   2  -7  -5   12.03    0.42
   2  -7  -5   12.76    0.35
   2  -7  -5   12.92    0.35
   2  -7  -5   12.52    0.45
   2  -7  -5   11.94    0.35
  -2   7   5   12.09    0.36
  -2   7   5   12.49    0.37
  -2   7   5   12.49    0.43
  -2   7   5   12.17    0.43
  -2   7   5   12.50    0.42
   1  -7  -5    2.89    0.09
   1  -7  -5    2.71    0.22
   1  -7  -5    2.32    0.20
   1  -7  -5    3.02    0.18
   1  -7  -5    2.35    0.19
   1  -7  -5    3.09    0.23
   1  -7  -5    2.83    0.14
   1  -7  -5    3.30    0.24
  -1   7   5    2.83    0.15
  -1   7   5    2.14    0.19
  -1   7   5    3.10    0.22
  -1   7   5    3.25    0.21
  -1   7   5    3.02    0.16
  -1   7   5    3.27    0.22
   0  -7  -5    2.30    0.08
   0  -7  -5    2.55    0.23
   0  -7  -5    2.45    0.18
   0  -7  -5    2.46    0.20
   0  -7  -5    2.51    0.18
   0  -7  -5    2.49    0.13
   0  -7  -5    2.24    0.19
   0  -7  -5    2.33    0.22
   0   7   5    2.41    0.13
   0   7   5    2.49    0.19
   0   7   5    2.32    0.18
   0   7   5    2.52    0.18
   0   7   5    2.31    0.15
   0   7   5    2.48    0.14
   0   7   5    2.80    0.20
  -1  -7  -5   11.28    0.49
  -1  -7  -5   10.29    0.41
  -1  -7  -5   11.78    0.33
  -1  -7  -5   10.25    0.41
  -1  -7  -5   12.25    0.42
   1   7   5   11.18    0.35
   1   7   5   10.28    0.41
   1   7   5   10.52    0.29
   1   7   5   11.45    0.34
   1   7   5   11.27    0.40
  -2  -7  -5   15.05    0.53
  -2  -7  -5   15.57    0.55
   2   7   5   15.12    0.51
   2   7   5   15.57    0.40
   2   7   5   15.50    0.53
  -3  -7  -5    9.17    0.40
  -3  -7  -5    7.98    0.37
   3   7   5    8.79    0.28
   3   7   5    8.70    0.39
   3   7   5    7.91    0.36
   4  -8  -5    1.96    0.16
   4  -8  -5    1.92    0.20
   4  -8  -5    1.87    0.20
  -4   8   5    1.83    0.20
  -4   8   5    2.30    0.22
  -4   8   5    1.85    0.17
   3  -8  -5    0.53    0.14
   3  -8  -5    0.60    0.10
   3  -8  -5    0.75    0.15
  -3   8   5    0.83    0.15
  -3   8   5    0.85    0.16
  -3   8   5    0.67    0.13
   2  -8  -5    0.70    0.15
   2  -8  -5    0.49    0.09
   2  -8  -5    0.60    0.14
   2  -8  -5    0.69    0.13
   2  -8  -5    0.65    0.10
   2  -8  -5    0.67    0.05
  -2   8   5    0.67    0.15
  -2   8   5    0.42    0.14
  -2   8   5    0.66    0.11
   1  -8  -5    4.89    0.27
   1  -8  -5    4.69    0.19
   1  -8  -5    4.48    0.27
   1  -8  -5    4.74    0.31
   1  -8  -5    4.50    0.25
   1  -8  -5    4.70    0.13
  -1   8   5    4.68    0.20
  -1   8   5    4.41    0.21
  -1   8   5    4.41    0.28
  -1   8   5    5.22    0.27
   0  -8  -5   12.23    0.51
   0  -8  -5   12.56    0.29
   0  -8  -5   13.51    0.43
   0  -8  -5   12.68    0.45
   0  -8  -5   12.11    0.35
   0  -8  -5   11.81    0.42
   0   8   5   11.66    0.41
   0   8   5   12.49    0.38
   0   8   5   12.53    0.44
   0   8   5   12.52    0.37
  -1  -8  -5    4.26    0.26
  -1  -8  -5    4.25    0.24
  -1  -8  -5    4.58    0.27
   1   8   5    4.23    0.26
   1   8   5    4.37    0.18
   1   8   5    3.97    0.25
  -2  -8  -5    1.65    0.21
  -2  -8  -5    2.07    0.24
   2   8   5    1.55    0.19
   2   8   5    1.39    0.17
   2   8   5    1.48    0.12
  -3  -8  -5    3.42    0.30
  -3  -8  -5    3.80    0.29
   3   8   5    3.84    0.20
   3   8   5    3.43    0.27
   3   8   5    3.99    0.30
   4  -9  -5    0.09    0.16
   4  -9  -5    0.10    0.15
   4  -9  -5    0.07    0.12
  -4   9   5    0.21    0.16
  -4   9   5    0.24    0.15
   3  -9  -5    0.34    0.11
   3  -9  -5    0.48    0.15
   3  -9  -5    0.32    0.14
  -3   9   5    0.13    0.12
  -3   9   5    0.44    0.15
  -3   9   5    0.24    0.16
   2  -9  -5   10.25    0.38
   2  -9  -5    9.77    0.30
   2  -9  -5    7.84    0.37
  -2   9   5    8.51    0.40
  -2   9   5    9.12    0.39
   1  -9  -5    7.10    0.19
   1  -9  -5    7.13    0.34
   1  -9  -5    7.87    0.35
   1  -9  -5    7.12    0.33
  -1   9   5    7.50    0.34
  -1   9   5    7.11    0.28
  -1   9   5    7.78    0.33
   0  -9  -5   -0.06    0.11
   0  -9  -5    0.10    0.11
   0   9   5    0.21    0.12
   0   9   5    0.13    0.12
  -1  -9  -5    2.09    0.19
  -1  -9  -5    2.48    0.21
   1   9   5    2.28    0.21
   1   9   5    1.87    0.19
  -2  -9  -5    1.30    0.21
  -2  -9  -5    1.29    0.21
   2   9   5    1.36    0.13
   2   9   5    1.29    0.21
   2   9   5    1.31    0.19
   4 -10  -5    0.02    0.17
   4 -10  -5    0.26    0.18
  -4  10   5   -0.08    0.16
  -4  10   5    0.16    0.18
   3 -10  -5    2.08    0.22
   3 -10  -5    1.90    0.22
   3 -10  -5    1.87    0.16
  -3  10   5    1.75    0.22
  -3  10   5    2.04    0.24
  -3  10   5    1.95    0.20
   2 -10  -5    0.91    0.19
   2 -10  -5    1.37    0.20
   2 -10  -5    1.42    0.13
  -2  10   5    0.85    0.18
  -2  10   5    1.16    0.19
   1 -10  -5    0.15    0.13
   1 -10  -5    0.03    0.13
  -1  10   5   -0.02    0.13
  -1  10   5   -0.04    0.13
   0 -10  -5    0.03    0.12
   0 -10  -5    0.41    0.13
   0  10   5    0.26    0.13
   0  10   5    0.07    0.13
  -1 -10  -5    8.19    0.36
  -1 -10  -5    8.63    0.37
   1  10   5    8.13    0.38
   1  10   5    7.92    0.36
  -2 -10  -5    0.22    0.18
  -2 -10  -5   -0.05    0.15
   2  10   5    0.07    0.16
   2  10   5   -0.08    0.17
   3 -11  -5    0.06    0.17
   3 -11  -5    0.00    0.17
  -3  11   5    0.14    0.19
  -3  11   5    0.30    0.19
   2 -11  -5   -0.14    0.15
   2 -11  -5   -0.20    0.15
  -2  11   5   -0.11    0.15
  -2  11   5   -0.02    0.17
   1 -11  -5    3.26    0.25
   1 -11  -5    2.92    0.24
  -1  11   5    3.06    0.24
  -1  11   5    2.86    0.23
  -1  11   5    2.89    0.25
   0 -11  -5    5.41    0.29
   0 -11  -5    4.53    0.27
   0  11   5    4.96    0.29
   0  11   5    4.92    0.29
  -1 -11  -5    0.50    0.16
  -1 -11  -5    0.80    0.17
   1  11   5    0.64    0.17
   1  11   5    0.41    0.16
   2 -12  -5    3.97    0.31
   2 -12  -5    3.60    0.30
  -2  12   5    3.73    0.29
  -2  12   5    3.57    0.31
   1 -12  -5    1.76    0.21
   1 -12  -5    1.97    0.22
  -1  12   5    2.02    0.22
  -1  12   5    1.65    0.21
  -1  12   5    2.18    0.23
   0 -12  -5   -0.03    0.14
   0 -12  -5    0.12    0.14
   0  12   5   -0.07    0.14
   0  12   5   -0.06    0.14
   1  13  -6    1.10    0.18
   1  13  -6    1.04    0.16
  -1 -13   6    0.87    0.16
  -1 -13   6    0.69    0.10
   0  13  -6    0.02    0.13
   0  13  -6    0.21    0.18
   0  13  -6    0.08    0.14
   0 -13   6    0.10    0.14
   0 -13   6   -0.10    0.08
  -1  13  -6    1.99    0.18
  -1  13  -6    1.76    0.21
   1 -13   6    1.65    0.13
   1 -13   6    1.81    0.20
  -2  13  -6    1.92    0.19
   2  12  -6    0.89    0.15
   2  12  -6    0.62    0.18
  -2 -12   6    0.48    0.18
   1  12  -6    0.78    0.15
   1  12  -6    1.01    0.20
   1  12  -6    0.91    0.14
  -1 -12   6    0.89    0.15
   0  12  -6    3.08    0.21
   0  12  -6    3.26    0.28
   0  12  -6    2.98    0.23
   0 -12   6    2.99    0.16
   0 -12   6    2.86    0.21
  -1  12  -6    4.96    0.34
  -1  12  -6    4.61    0.25
  -1  12  -6    4.83    0.28
   1 -12   6    4.72    0.19
   1 -12   6    4.81    0.27
  -2  12  -6    0.29    0.13
  -2  12  -6    0.05    0.14
   2 -12   6    0.12    0.13
   2 -12   6    0.15    0.10
   3  11  -6    0.25    0.15
  -3 -11   6    0.20    0.16
   2  11  -6    2.01    0.26
   2  11  -6    1.38    0.17
   2  11  -6    1.65    0.22
  -2 -11   6    1.59    0.21
  -2 -11   6    1.51    0.16
   1  11  -6    3.98    0.27
   1  11  -6    3.68    0.21
   1  11  -6    3.97    0.30
   1  11  -6    3.39    0.23
  -1 -11   6    4.18    0.21
  -1 -11   6    4.03    0.23
  -1 -11   6    3.76    0.20
   0  11  -6    1.75    0.17
   0  11  -6    1.54    0.17
   0  11  -6    1.56    0.15
   0  11  -6    1.74    0.23
   0  11  -6    1.58    0.20
   0 -11   6    1.62    0.13
   0 -11   6    1.64    0.16
   0 -11   6    1.55    0.10
  -1  11  -6   -0.04    0.15
  -1  11  -6    0.08    0.10
  -1  11  -6    0.09    0.12
  -1  11  -6    0.16    0.12
   1 -11   6    0.03    0.11
   1 -11   6    0.14    0.07
   1 -11   6    0.11    0.09
  -2  11  -6    2.98    0.28
  -2  11  -6    2.89    0.21
  -2  11  -6    2.65    0.21
   2 -11   6    3.04    0.22
   2 -11   6    2.87    0.17
  -3  11  -6    0.06    0.13
  -3  11  -6    0.06    0.14
   3 -11   6    0.12    0.12
   3 -11   6    0.10    0.14
   3  10  -6    0.26    0.16
   3  10  -6    0.32    0.14
  -3 -10   6    0.20    0.14
   2  10  -6    2.17    0.18
   2  10  -6    2.33    0.27
   2  10  -6    2.38    0.24
  -2 -10   6    2.29    0.17
  -2 -10   6    2.32    0.22
   1  10  -6    2.56    0.23
   1  10  -6    2.49    0.18
   1  10  -6    2.08    0.23
   1  10  -6    2.17    0.16
   1  10  -6    2.31    0.19
   1  10  -6    2.76    0.23
  -1 -10   6    2.28    0.18
  -1 -10   6    2.38    0.15
  -1 -10   6    2.46    0.16
   0  10  -6    1.78    0.16
   0  10  -6    2.30    0.18
   0  10  -6    1.97    0.16
   0  10  -6    2.13    0.22
   0  10  -6    2.21    0.20
   0 -10   6    1.66    0.13
   0 -10   6    2.11    0.16
  -1  10  -6    7.13    0.28
  -1  10  -6    7.68    0.32
  -1  10  -6    7.43    0.31
  -1  10  -6    7.70    0.36
  -1  10  -6    7.50    0.41
   1 -10   6    7.72    0.29
   1 -10   6    7.47    0.25
   1 -10   6    7.48    0.22
  -2  10  -6    7.19    0.32
  -2  10  -6    6.88    0.28
  -2  10  -6    7.66    0.38
   2 -10   6    7.34    0.25
   2 -10   6    7.14    0.26
   2 -10   6    7.32    0.29
  -3  10  -6    0.42    0.15
  -3  10  -6    0.26    0.13
   3 -10   6    0.40    0.12
   3 -10   6    0.25    0.13
   4   9  -6    0.12    0.15
  -4  -9   6    0.00    0.14
   3   9  -6    1.42    0.17
   3   9  -6    1.43    0.23
   3   9  -6    1.39    0.17
  -3  -9   6    1.22    0.16
   2   9  -6    0.45    0.12
   2   9  -6    0.67    0.14
   2   9  -6    0.27    0.17
   2   9  -6    0.47    0.14
   2   9  -6    0.45    0.12
  -2  -9   6    0.44    0.10
  -2  -9   6    0.48    0.13
   1   9  -6    2.70    0.23
   1   9  -6    2.55    0.16
   1   9  -6    2.22    0.16
   1   9  -6    2.46    0.19
   1   9  -6    2.20    0.18
   1   9  -6    2.62    0.23
  -1  -9   6    2.77    0.20
  -1  -9   6    2.27    0.14
  -1  -9   6    2.58    0.15
  -1  -9   6    2.51    0.15
  -1  -9   6    2.30    0.17
   0   9  -6   11.06    0.44
   0   9  -6   10.49    0.38
   0   9  -6   11.09    0.45
   0   9  -6   10.35    0.31
   0   9  -6   11.32    0.35
   0   9  -6   11.71    0.39
   0  -9   6   10.87    0.31
   0  -9   6   10.66    0.35
   0  -9   6   11.18    0.36
   0  -9   6   11.39    0.32
   0  -9   6   11.35    0.32
  -1   9  -6    9.03    0.30
  -1   9  -6    8.93    0.43
  -1   9  -6    8.77    0.33
  -1   9  -6    9.35    0.39
  -1   9  -6    9.43    0.34
   1  -9   6    9.12    0.27
   1  -9   6    9.42    0.31
   1  -9   6    9.36    0.24
   1  -9   6    9.19    0.31
   1  -9   6    8.95    0.31
  -2   9  -6    0.40    0.14
  -2   9  -6    0.57    0.12
  -2   9  -6    0.54    0.12
  -2   9  -6    0.50    0.11
  -2   9  -6    0.66    0.18
   2  -9   6    0.33    0.09
   2  -9   6    0.68    0.10
   2  -9   6    0.46    0.12
   2  -9   6    0.34    0.11
  -3   9  -6    0.98    0.16
  -3   9  -6    1.23    0.20
  -3   9  -6    0.99    0.15
   3  -9   6    1.18    0.15
   3  -9   6    1.24    0.13
   3  -9   6    1.14    0.13
   4   8  -6    3.37    0.23
   4   8  -6    2.98    0.24
  -4  -8   6    3.00    0.24
   3   8  -6   -0.05    0.11
   3   8  -6    0.05    0.15
   3   8  -6    0.21    0.11
  -3  -8   6    0.16    0.11
   2   8  -6    3.97    0.23
   2   8  -6    4.27    0.21
   2   8  -6    4.12    0.24
   2   8  -6    3.64    0.22
   2   8  -6    4.11    0.29
  -2  -8   6    3.76    0.19
  -2  -8   6    3.95    0.21
  -2  -8   6    3.99    0.17
  -2  -8   6    4.11    0.20
   1   8  -6   12.78    0.43
   1   8  -6   13.15    0.36
   1   8  -6   12.43    0.36
   1   8  -6   12.57    0.45
   1   8  -6   12.40    0.47
   1   8  -6   13.22    0.49
   1   8  -6   12.74    0.39
   1   8  -6   12.34    0.37
   1   8  -6   13.04    0.39
  -1  -8   6   12.94    0.38
  -1  -8   6   13.53    0.35
  -1  -8   6   12.24    0.42
  -1  -8   6   12.84    0.35
  -1  -8   6   12.21    0.39
   0   8  -6    7.99    0.27
   0   8  -6    7.65    0.35
   0   8  -6    7.58    0.32
   0   8  -6    7.74    0.29
   0   8  -6    7.46    0.25
   0   8  -6    7.61    0.28
   0   8  -6    7.71    0.23
   0   8  -6    7.84    0.23
   0  -8   6    7.82    0.23
   0  -8   6    7.49    0.27
   0  -8   6    7.62    0.26
   0  -8   6    7.63    0.24
   0  -8   6    7.64    0.23
  -1   8  -6   15.59    0.43
  -1   8  -6   16.39    0.55
  -1   8  -6   16.05    0.46
  -1   8  -6   15.96    0.49
  -1   8  -6   15.79    0.48
  -1   8  -6   16.15    0.59
   1  -8   6   16.04    0.36
   1  -8   6   16.17    0.45
   1  -8   6   15.91    0.45
   1  -8   6   14.16    0.43
   1  -8   6   16.33    0.41
  -2   8  -6    6.31    0.27
  -2   8  -6    6.63    0.32
  -2   8  -6    6.23    0.24
  -2   8  -6    6.30    0.27
  -2   8  -6    6.18    0.34
   2  -8   6    5.39    0.21
   2  -8   6    6.44    0.25
   2  -8   6    6.40    0.22
   2  -8   6    6.36    0.25
  -3   8  -6    0.49    0.17
  -3   8  -6    0.48    0.12
  -3   8  -6    0.30    0.13
   3  -8   6    0.36    0.12
   3  -8   6    0.27    0.10
   3  -8   6    0.32    0.10
  -4   8  -6    0.08    0.13
   4  -8   6    0.20    0.11
   4  -8   6    0.33    0.15
   4   7  -6    0.14    0.13
   4   7  -6    0.35    0.14
  -4  -7   6    0.30    0.13
   3   7  -6    1.46    0.15
   3   7  -6    1.26    0.14
   3   7  -6    1.41    0.14
   3   7  -6    1.46    0.19
   3   7  -6    1.51    0.18
   3   7  -6    1.36    0.14
  -3  -7   6    1.48    0.14
  -3  -7   6    1.49    0.15
   2   7  -6    7.76    0.28
   2   7  -6    8.09    0.27
   2   7  -6    8.65    0.30
   2   7  -6    8.29    0.29
   2   7  -6    8.38    0.36
   2   7  -6    7.82    0.33
   2   7  -6    8.13    0.30
  -2  -7   6    8.66    0.29
  -2  -7   6    8.05    0.25
  -2  -7   6    7.91    0.28
  -2  -7   6    8.47    0.29
   1   7  -6    1.57    0.12
   1   7  -6    1.32    0.14
   1   7  -6    1.59    0.13
   1   7  -6    1.40    0.11
   1   7  -6    1.64    0.09
   1   7  -6    1.67    0.14
   1   7  -6    1.54    0.09
   1   7  -6    1.61    0.15
  -1  -7   6    1.68    0.12
  -1  -7   6    1.56    0.12
  -1  -7   6    1.77    0.13
  -1  -7   6    1.66    0.10
  -1  -7   6    1.63    0.13
  -1  -7   6    1.55    0.10
   0   7  -6   10.22    0.39
   0   7  -6   10.08    0.36
   0   7  -6    9.83    0.30
   0   7  -6   10.48    0.34
   0   7  -6   10.50    0.31
   0   7  -6    9.88    0.28
   0   7  -6    9.51    0.32
   0  -7   6   10.06    0.30
   0  -7   6    9.89    0.27
   0  -7   6    9.93    0.26
   0  -7   6   10.18    0.31
   0  -7   6    9.72    0.30
   0  -7   6   10.30    0.28
  -1   7  -6   68.23    1.70
  -1   7  -6   68.77    1.78
  -1   7  -6   69.11    1.71
  -1   7  -6   67.62    1.65
  -1   7  -6   68.49    2.01
  -1   7  -6   67.96    1.78
  -1   7  -6   68.53    2.03
   1  -7   6   69.15    1.70
   1  -7   6   67.72    1.67
   1  -7   6   66.59    1.61
   1  -7   6   63.78    1.54
   1  -7   6   66.85    1.52
  -2   7  -6    0.30    0.14
  -2   7  -6    0.21    0.12
  -2   7  -6    0.34    0.08
  -2   7  -6    0.26    0.09
  -2   7  -6    0.32    0.10
  -2   7  -6    0.27    0.09
   2  -7   6    0.29    0.09
   2  -7   6    0.35    0.08
   2  -7   6    0.14    0.08
   2  -7   6    0.32    0.09
   2  -7   6    0.40    0.08
   2  -7   6    0.39    0.10
  -3   7  -6    0.15    0.15
  -3   7  -6    0.11    0.11
  -3   7  -6    0.15    0.10
   3  -7   6    0.02    0.09
   3  -7   6    0.08    0.08
   3  -7   6   -0.06    0.10
   3  -7   6    0.18    0.11
  -4   7  -6    1.86    0.18
   4  -7   6    1.44    0.18
   4  -7   6    1.51    0.13
   4   6  -6    1.33    0.17
   4   6  -6    1.83    0.21
   4   6  -6    1.83    0.17
  -4  -6   6    1.55    0.16
   3   6  -6    3.68    0.21
   3   6  -6    4.12    0.19
   3   6  -6    3.76    0.22
   3   6  -6    3.65    0.21
   3   6  -6    3.94    0.25
   3   6  -6    3.63    0.24
  -3  -6   6    4.15    0.21
  -3  -6   6    4.09    0.20
  -3  -6   6    4.01    0.21
   2   6  -6    0.14    0.09
   2   6  -6    0.05    0.07
   2   6  -6    0.10    0.07
   2   6  -6    0.06    0.07
   2   6  -6    0.11    0.06
   2   6  -6    0.07    0.10
   2   6  -6    0.09    0.08
   2   6  -6   -0.01    0.08
  -2  -6   6    0.16    0.07
  -2  -6   6    0.06    0.07
  -2  -6   6    0.17    0.06
  -2  -6   6    0.04    0.07
   1   6  -6   15.24    0.45
   1   6  -6   15.06    0.50
   1   6  -6   15.78    0.42
   1   6  -6   15.85    0.48
   1   6  -6   15.15    0.43
   1   6  -6   16.12    0.53
   1   6  -6   15.12    0.42
  -1  -6   6   15.28    0.43
  -1  -6   6   15.75    0.37
  -1  -6   6   15.44    0.42
  -1  -6   6   15.42    0.43
  -1  -6   6   15.09    0.43
  -1  -6   6   15.48    0.38
   0   6  -6   20.20    0.53
   0   6  -6   19.28    0.55
   0   6  -6   19.95    0.62
   0   6  -6   19.91    0.50
   0   6  -6   20.00    0.64
   0   6  -6   19.53    0.52
   0   6  -6   19.70    0.49
   0   6  -6   20.11    0.57
   0  -6   6   19.35    0.46
   0  -6   6   19.77    0.52
   0  -6   6   19.87    0.52
   0  -6   6   19.61    0.52
   0  -6   6   19.94    0.50
   0  -6   6   19.46    0.46
  -1   6  -6    0.35    0.10
  -1   6  -6    0.42    0.09
  -1   6  -6    0.43    0.07
  -1   6  -6    0.40    0.07
  -1   6  -6    0.40    0.06
  -1   6  -6    0.33    0.08
   1  -6   6    0.45    0.06
   1  -6   6    0.40    0.06
   1  -6   6    0.37    0.06
   1  -6   6    0.44    0.06
   1  -6   6    0.43    0.08
   1  -6   6    0.43    0.07
   1  -6   6    0.45    0.07
  -2   6  -6   11.56    0.45
  -2   6  -6   12.23    0.36
  -2   6  -6   11.78    0.38
  -2   6  -6   11.91    0.39
  -2   6  -6   11.58    0.36
  -2   6  -6   11.81    0.44
  -2   6  -6   11.92    0.34
   2  -6   6   11.58    0.32
   2  -6   6   11.58    0.36
   2  -6   6   11.46    0.36
   2  -6   6   11.67    0.36
   2  -6   6   11.77    0.33
   2  -6   6   12.04    0.30
  -3   6  -6    7.25    0.31
  -3   6  -6    7.70    0.32
  -3   6  -6    7.69    0.29
  -3   6  -6    7.72    0.37
   3  -6   6    7.65    0.23
   3  -6   6    7.39    0.29
   3  -6   6    7.73    0.29
   3  -6   6    7.57    0.26
  -4   6  -6    4.60    0.28
  -4   6  -6    3.92    0.24
   4  -6   6    4.61    0.20
   4  -6   6    4.42    0.26
   5   5  -6    1.26    0.19
  -5  -5   6    1.04    0.17
   4   5  -6    0.91    0.14
   4   5  -6    1.03    0.18
   4   5  -6    0.84    0.15
  -4  -5   6    0.70    0.13
   3   5  -6    0.23    0.09
   3   5  -6    0.19    0.09
   3   5  -6    0.15    0.09
   3   5  -6    0.04    0.11
   3   5  -6    0.06    0.12
   3   5  -6    0.30    0.08
  -3  -5   6    0.12    0.08
  -3  -5   6    0.28    0.08
  -3  -5   6    0.14    0.09
  -3  -5   6    0.12    0.09
   2   5  -6    6.88    0.28
   2   5  -6    7.23    0.25
   2   5  -6    7.03    0.25
   2   5  -6    6.86    0.23
   2   5  -6    6.83    0.23
   2   5  -6    7.01    0.23
   2   5  -6    6.98    0.25
   2   5  -6    6.84    0.22
   2   5  -6    5.83    0.28
  -2  -5   6    6.61    0.23
  -2  -5   6    6.81    0.20
  -2  -5   6    6.99    0.23
  -2  -5   6    6.81    0.23
  -2  -5   6    7.14    0.24
   1   5  -6   26.66    0.65
   1   5  -6   26.44    0.72
   1   5  -6   27.29    0.81
   1   5  -6   26.39    0.69
   1   5  -6   27.60    0.68
   1   5  -6   27.19    0.82
   1   5  -6   26.97    0.69
   1   5  -6   26.87    0.72
  -1  -5   6   25.86    0.67
  -1  -5   6   27.44    0.68
  -1  -5   6   26.65    0.60
  -1  -5   6   25.99    0.61
  -1  -5   6   26.08    0.70
  -1  -5   6   26.53    0.68
   0   5  -6    0.16    0.05
   0   5  -6    0.25    0.04
   0   5  -6    0.20    0.05
   0   5  -6    0.16    0.05
   0   5  -6    0.14    0.06
   0   5  -6    0.18    0.07
   0  -5   6    0.13    0.03
   0  -5   6    0.22    0.04
   0  -5   6    0.18    0.04
   0  -5   6    0.18    0.03
   0  -5   6    0.18    0.05
   0  -5   6    0.16    0.04
  -1   5  -6   22.83    0.64
  -1   5  -6   23.54    0.61
  -1   5  -6   23.51    0.72
  -1   5  -6   23.30    0.61
  -1   5  -6   22.94    0.64
  -1   5  -6   23.31    0.73
   1  -5   6   23.42    0.59
   1  -5   6   22.99    0.60
   1  -5   6   23.18    0.56
   1  -5   6   23.54    0.60
   1  -5   6   23.22    0.61
   1  -5   6   23.02    0.54
   1  -5   6   23.99    0.55
  -2   5  -6    6.65    0.26
  -2   5  -6    6.80    0.26
  -2   5  -6    7.34    0.25
  -2   5  -6    6.75    0.24
  -2   5  -6    7.02    0.30
  -2   5  -6    6.99    0.22
  -2   5  -6    6.67    0.30
   2  -5   6    6.59    0.21
   2  -5   6    7.00    0.19
   2  -5   6    6.94    0.24
   2  -5   6    6.75    0.24
   2  -5   6    7.30    0.24
   2  -5   6    6.89    0.22
  -3   5  -6    7.16    0.30
  -3   5  -6    6.85    0.28
  -3   5  -6    7.15    0.30
  -3   5  -6    7.23    0.35
  -3   5  -6    7.46    0.27
  -3   5  -6    7.30    0.36
   3  -5   6    7.21    0.28
   3  -5   6    7.18    0.22
   3  -5   6    7.24    0.29
   3  -5   6    7.32    0.28
   3  -5   6    7.21    0.25
  -4   5  -6   -0.02    0.12
  -4   5  -6    0.02    0.13
   4  -5   6   -0.06    0.12
   4  -5   6    0.02    0.09
   5   4  -6   -0.10    0.13
  -5  -4   6    0.04    0.13
   4   4  -6    2.14    0.22
   4   4  -6    1.67    0.17
   4   4  -6    1.30    0.15
   4   4  -6    1.73    0.17
  -4  -4   6    1.66    0.16
   3   4  -6    3.90    0.29
   3   4  -6    4.80    0.22
   3   4  -6    5.19    0.20
   3   4  -6    5.00    0.22
   3   4  -6    5.64    0.24
   3   4  -6    5.08    0.26
   3   4  -6    5.21    0.21
  -3  -4   6    5.01    0.22
  -3  -4   6    5.09    0.19
  -3  -4   6    4.94    0.21
  -3  -4   6    4.97    0.21
   2   4  -6   15.93    0.45
   2   4  -6   15.62    0.46
   2   4  -6   15.61    0.42
   2   4  -6   16.28    0.53
   2   4  -6   15.84    0.52
   2   4  -6   15.83    0.46
   2   4  -6   15.84    0.44
   2   4  -6   15.50    0.46
  -2  -4   6   16.45    0.43
  -2  -4   6   15.98    0.44
  -2  -4   6   15.77    0.43
  -2  -4   6   16.09    0.39
  -2  -4   6   16.03    0.45
   1   4  -6    7.67    0.23
   1   4  -6    7.50    0.22
   1   4  -6    7.53    0.23
   1   4  -6    6.99    0.23
   1   4  -6    7.71    0.26
   1   4  -6    7.85    0.21
   1   4  -6    7.17    0.26
  -1  -4   6    7.48    0.21
  -1  -4   6    7.47    0.21
  -1  -4   6    7.42    0.22
  -1  -4   6    7.39    0.21
  -1  -4   6    7.34    0.17
  -1  -4   6    7.30    0.23
  -1  -4   6    7.52    0.17
   0   4  -6   73.46    1.85
   0   4  -6   73.80    1.77
   0   4  -6   72.62    1.77
   0   4  -6   72.65    2.09
   0   4  -6   71.45    2.09
   0   4  -6   72.91    1.85
   0  -4   6   70.70    1.74
   0  -4   6   72.55    1.74
   0  -4   6   68.72    1.77
   0  -4   6   74.49    1.74
   0  -4   6   72.20    1.77
  -1   4  -6   74.50    2.19
  -1   4  -6   74.76    1.85
  -1   4  -6   75.23    1.85
  -1   4  -6   75.50    2.20
  -1   4  -6   74.42    1.94
  -1   4  -6   76.11    1.94
   1  -4   6   76.03    1.79
   1  -4   6   75.76    1.82
   1  -4   6   75.25    1.67
   1  -4   6   75.64    1.85
   1  -4   6   73.54    1.66
   1  -4   6   74.78    1.75
   1  -4   6   73.77    1.82
  -2   4  -6    5.89    0.26
  -2   4  -6    5.65    0.21
  -2   4  -6    5.57    0.22
  -2   4  -6    5.33    0.26
  -2   4  -6    5.43    0.22
  -2   4  -6    5.53    0.19
  -2   4  -6    5.19    0.20
   2  -4   6    5.51    0.15
   2  -4   6    5.42    0.21
   2  -4   6    5.45    0.15
   2  -4   6    5.36    0.20
   2  -4   6    5.61    0.18
   2  -4   6    5.44    0.21
   2  -4   6    5.63    0.18
  -3   4  -6    0.32    0.11
  -3   4  -6    0.57    0.14
  -3   4  -6    0.60    0.15
  -3   4  -6    0.54    0.12
  -3   4  -6    0.52    0.11
  -3   4  -6    0.60    0.10
   3  -4   6    0.45    0.08
   3  -4   6    0.63    0.11
   3  -4   6    0.51    0.09
   3  -4   6    0.51    0.11
   3  -4   6    0.65    0.11
  -4   4  -6    5.65    0.30
  -4   4  -6    5.18    0.27
   4  -4   6    5.20    0.27
   4  -4   6    5.70    0.21
   5   3  -6    0.44    0.14
  -5  -3   6    0.63    0.15
   4   3  -6    7.44    0.28
   4   3  -6    7.28    0.29
   4   3  -6    6.83    0.36
   4   3  -6    7.21    0.31
  -4  -3   6    7.39    0.29
  -4  -3   6    6.64    0.29
  -4  -3   6    7.36    0.29
   3   3  -6    6.59    0.26
   3   3  -6    6.43    0.33
   3   3  -6    6.28    0.29
   3   3  -6    6.62    0.26
   3   3  -6    7.05    0.23
   3   3  -6    6.62    0.24
   3   3  -6    7.07    0.25
  -3  -3   6    6.69    0.24
  -3  -3   6    6.29    0.25
  -3  -3   6    6.85    0.22
  -3  -3   6    6.53    0.24
   2   3  -6    0.65    0.09
   2   3  -6    0.74    0.09
   2   3  -6    0.65    0.07
   2   3  -6    0.75    0.06
   2   3  -6    0.61    0.10
   2   3  -6    0.69    0.08
   2   3  -6    0.68    0.08
   2   3  -6    0.68    0.09
  -2  -3   6    0.77    0.07
  -2  -3   6    0.76    0.07
  -2  -3   6    0.64    0.07
  -2  -3   6    0.63    0.06
  -2  -3   6    0.56    0.08
   1   3  -6   73.24    2.17
   1   3  -6   73.39    1.84
   1   3  -6   75.47    1.83
   1   3  -6   74.37    2.17
   1   3  -6   77.14    1.84
   1   3  -6   75.78    1.92
   1   3  -6   75.45    1.92
  -1  -3   6   76.43    1.81
  -1  -3   6   74.83    1.84
  -1  -3   6   76.97    1.83
  -1  -3   6   74.72    1.81
  -1  -3   6   75.39    1.84
   0   3  -6    2.24    0.08
   0   3  -6    2.31    0.08
   0  -3   6    2.38    0.07
   0  -3   6    2.30    0.10
   0  -3   6    2.21    0.07
   0  -3   6    2.28    0.07
  -1   3  -6    5.62    0.19
  -1   3  -6    5.56    0.18
  -1   3  -6    5.65    0.18
  -1   3  -6    5.73    0.19
  -1   3  -6    5.84    0.22
  -1   3  -6    5.51    0.23
   1  -3   6    5.48    0.18
   1  -3   6    5.60    0.15
   1  -3   6    5.51    0.15
   1  -3   6    5.71    0.18
   1  -3   6    5.59    0.18
   1  -3   6    5.82    0.18
  -2   3  -6    4.96    0.20
  -2   3  -6    5.11    0.21
  -2   3  -6    4.87    0.18
  -2   3  -6    4.64    0.24
  -2   3  -6    4.89    0.24
  -2   3  -6    4.99    0.19
  -2   3  -6    4.82    0.19
   2  -3   6    4.91    0.19
   2  -3   6    4.97    0.17
   2  -3   6    4.62    0.18
   2  -3   6    4.68    0.19
   2  -3   6    4.78    0.14
   2  -3   6    5.10    0.17
   2  -3   6    5.13    0.16
  -3   3  -6    7.80    0.37
  -3   3  -6    8.80    0.38
  -3   3  -6    8.43    0.32
  -3   3  -6    8.37    0.29
  -3   3  -6    8.49    0.32
  -3   3  -6    8.50    0.30
   3  -3   6    8.93    0.26
   3  -3   6    8.40    0.24
   3  -3   6    8.22    0.27
   3  -3   6    7.94    0.28
   3  -3   6    8.61    0.30
   3  -3   6    8.05    0.30
  -4   3  -6    2.45    0.19
  -4   3  -6    2.56    0.21
   4  -3   6    2.39    0.15
   4  -3   6    2.00    0.18
   5   2  -6    1.28    0.17
  -5  -2   6    1.10    0.16
   4   2  -6    1.15    0.14
   4   2  -6    1.32    0.14
   4   2  -6    1.23    0.19
   4   2  -6    1.01    0.14
   4   2  -6    1.06    0.14
  -4  -2   6    1.02    0.13
  -4  -2   6    0.90    0.13
  -4  -2   6    1.15    0.13
   3   2  -6   15.16    0.46
   3   2  -6   15.54    0.48
   3   2  -6   15.62    0.54
   3   2  -6   15.74    0.44
   3   2  -6   15.98    0.48
   3   2  -6   15.10    0.55
   3   2  -6   16.36    0.46
   3   2  -6   16.22    0.46
  -3  -2   6   15.60    0.46
  -3  -2   6   15.21    0.43
  -3  -2   6   15.90    0.45
  -3  -2   6   16.30    0.41
  -3  -2   6   15.98    0.45
   2   2  -6   17.79    0.56
   2   2  -6   17.89    0.50
   2   2  -6   17.73    0.57
   2   2  -6   18.37    0.48
   2   2  -6   17.79    0.49
   2   2  -6   17.59    0.50
   2   2  -6   18.08    0.46
  -2  -2   6   17.89    0.49
  -2  -2   6   17.85    0.42
  -2  -2   6   18.06    0.47
  -2  -2   6   17.96    0.48
  -2  -2   6   17.96    0.47
   1   2  -6    8.76    0.22
   1   2  -6    9.17    0.24
   1   2  -6    9.04    0.22
   1   2  -6    8.84    0.24
  -1  -2   6    8.91    0.23
  -1  -2   6    8.60    0.23
  -1  -2   6    8.77    0.23
  -1  -2   6    8.44    0.26
  -1  -2   6    8.73    0.23
   0   2  -6   16.28    0.42
   0   2  -6   16.07    0.42
   0  -2   6   16.14    0.39
   0  -2   6   15.72    0.39
   0  -2   6   16.23    0.42
  -1   2  -6   24.08    0.72
  -1   2  -6   23.26    0.64
  -1   2  -6   24.07    0.64
  -1   2  -6   24.33    0.61
  -1   2  -6   24.00    0.61
   1  -2   6   23.84    0.54
   1  -2   6   23.56    0.58
   1  -2   6   22.80    0.54
   1  -2   6   24.32    0.60
   1  -2   6   23.48    0.60
   1  -2   6   23.08    0.61
  -2   2  -6   19.26    0.66
  -2   2  -6   20.73    0.54
  -2   2  -6   19.94    0.55
  -2   2  -6   19.59    0.53
  -2   2  -6   20.20    0.57
  -2   2  -6   19.73    0.57
  -2   2  -6   19.47    0.65
  -2   2  -6   20.40    0.52
   2  -2   6   19.26    0.54
   2  -2   6   20.37    0.52
   2  -2   6   19.41    0.54
   2  -2   6   20.14    0.51
   2  -2   6   19.60    0.44
   2  -2   6   19.62    0.49
  -3   2  -6    4.22    0.22
  -3   2  -6    3.80    0.12
  -3   2  -6    3.99    0.27
  -3   2  -6    3.89    0.22
  -3   2  -6    3.61    0.19
  -3   2  -6    3.61    0.20
  -3   2  -6    3.71    0.25
   3  -2   6    3.84    0.20
   3  -2   6    3.78    0.20
   3  -2   6    3.89    0.15
   3  -2   6    3.63    0.17
   3  -2   6    4.05    0.18
   3  -2   6    4.42    0.20
  -4   2  -6    0.53    0.15
  -4   2  -6    0.58    0.14
   4  -2   6    0.53    0.14
   4  -2   6    0.65    0.10
   5   1  -6    0.09    0.12
  -5  -1   6    0.24    0.13
   4   1  -6    2.83    0.12
   4   1  -6    2.94    0.18
   4   1  -6    2.49    0.22
   4   1  -6    2.61    0.20
   4   1  -6    2.50    0.18
   4   1  -6    2.62    0.19
  -4  -1   6    2.62    0.18
  -4  -1   6    2.77    0.18
  -4  -1   6    3.06    0.19
   3   1  -6   20.40    0.57
   3   1  -6   19.75    0.68
   3   1  -6   20.65    0.67
   3   1  -6   20.69    0.55
   3   1  -6   20.52    0.60
   3   1  -6   20.38    0.57
   3   1  -6   20.09    0.60
   3   1  -6   21.71    0.57
  -3  -1   6   20.72    0.57
  -3  -1   6   20.44    0.53
  -3  -1   6   20.30    0.57
  -3  -1   6   20.56    0.51
  -3  -1   6   20.28    0.56
   2   1  -6    3.77    0.16
   2   1  -6    3.63    0.17
   2   1  -6    3.67    0.14
   2   1  -6    3.82    0.15
   2   1  -6    3.51    0.15
   2   1  -6    3.49    0.17
   2   1  -6    3.60    0.13
  -2  -1   6    3.65    0.14
  -2  -1   6    3.61    0.12
  -2  -1   6    3.56    0.14
  -2  -1   6    3.64    0.16
  -2  -1   6    3.51    0.14
   1   1  -6    0.10    0.04
   1   1  -6    0.11    0.04
   1   1  -6    0.11    0.03
   1   1  -6    0.09    0.03
   1   1  -6    0.09    0.03
   1   1  -6    0.12    0.04
  -1  -1   6    0.12    0.03
  -1  -1   6    0.06    0.03
  -1  -1   6    0.07    0.05
  -1  -1   6    0.12    0.03
  -1  -1   6    0.10    0.03
   0   1  -6   57.24    1.48
   0   1  -6   58.75    1.41
   0   1  -6   58.72    1.48
   0   1  -6   58.70    1.48
   0   1  -6   58.53    1.41
   0  -1   6   57.68    1.41
   0  -1   6   53.52    1.42
   0  -1   6   58.92    1.32
   0  -1   6   57.80    1.39
   0  -1   6   57.76    1.39
  -1   1  -6   38.22    0.96
  -1   1  -6   38.35    1.01
  -1   1  -6   37.11    0.94
  -1   1  -6   39.40    1.14
  -1   1  -6   38.30    1.14
  -1   1  -6   37.04    1.01
   1  -1   6   38.12    0.94
   1  -1   6   38.44    0.86
   1  -1   6   38.81    0.95
   1  -1   6   37.45    0.90
   1  -1   6   38.27    0.96
  -2   1  -6    4.56    0.20
  -2   1  -6    4.85    0.19
  -2   1  -6    4.92    0.18
  -2   1  -6    4.88    0.18
  -2   1  -6    4.48    0.19
  -2   1  -6    4.62    0.20
  -2   1  -6    4.72    0.23
   2  -1   6    4.52    0.18
   2  -1   6    4.86    0.18
   2  -1   6    4.23    0.19
   2  -1   6    4.84    0.18
   2  -1   6    4.65    0.14
   2  -1   6    4.54    0.16
  -3   1  -6    0.98    0.13
  -3   1  -6    1.04    0.16
  -3   1  -6    0.90    0.17
  -3   1  -6    0.77    0.13
  -3   1  -6    1.00    0.07
  -3   1  -6    0.80    0.12
  -3   1  -6    0.73    0.15
  -3   1  -6    0.91    0.11
   3  -1   6    0.87    0.12
   3  -1   6    0.87    0.10
   3  -1   6    0.99    0.12
   3  -1   6    0.86    0.09
   3  -1   6    0.93    0.10
  -4   1  -6    3.78    0.23
   4  -1   6    3.54    0.24
   4  -1   6    3.65    0.17
   5   0  -6    1.40    0.17
  -5   0   6    1.35    0.17
   4   0  -6    5.26    0.24
   4   0  -6    5.42    0.23
   4   0  -6    5.46    0.17
   4   0  -6    5.36    0.25
   4   0  -6    5.32    0.30
   4   0  -6    4.94    0.25
  -4   0   6    5.30    0.24
  -4   0   6    5.14    0.24
  -4   0   6    5.24    0.24
   3   0  -6    0.03    0.07
   3   0  -6   -0.03    0.10
   3   0  -6    0.02    0.01
   3   0  -6    0.05    0.08
   3   0  -6   -0.10    0.07
   3   0  -6    0.01    0.07
   3   0  -6   -0.08    0.07
   3   0  -6   -0.03    0.09
   3   0  -6   -0.04    0.07
  -3   0   6    0.03    0.07
  -3   0   6   -0.05    0.07
  -3   0   6   -0.04    0.07
  -3   0   6    0.00    0.06
  -3   0   6    0.09    0.07
   2   0  -6    5.45    0.18
   2   0  -6    5.37    0.18
   2   0  -6    5.46    0.17
   2   0  -6    5.26    0.22
   2   0  -6    5.33    0.20
   2   0  -6    5.35    0.19
  -2   0   6    5.32    0.12
  -2   0   6    5.57    0.19
  -2   0   6    5.45    0.20
  -2   0   6    5.27    0.16
  -2   0   6    5.42    0.18
  -2   0   6    5.32    0.18
  -2   0   6    5.66    0.17
  -2   0   6    5.55    0.18
   1   0  -6   38.82    0.94
   1   0  -6   36.77    1.16
   1   0  -6   38.84    0.98
   1   0  -6   39.78    1.02
   1   0  -6   40.15    1.16
   1   0  -6   40.58    0.94
   1   0  -6   41.00    1.03
   1   0  -6   38.50    0.98
  -1   0   6   39.82    1.01
  -1   0   6   39.31    0.96
  -1   0   6   39.95    0.90
  -1   0   6   39.35    0.96
  -1   0   6   39.20    0.99
  -1   0   6   39.41    0.98
  -1   0   6   39.65    0.98
   0   0  -6   43.30    1.06
   0   0  -6   42.17    1.25
   0   0  -6   41.99    1.07
   0   0  -6   42.92    1.26
   0   0  -6   42.58    1.12
   0   0  -6   43.02    1.11
   0   0  -6   43.06    1.03
   0   0  -6   42.57    1.03
   0   0   6   43.51    1.05
   0   0   6   44.01    1.06
   0   0   6   44.22    0.98
   0   0   6   41.54    1.08
   0   0   6   43.71    0.94
   0   0   6   41.91    1.10
   0   0   6   42.48    1.04
  -1   0  -6   -0.01    0.06
  -1   0  -6    0.12    0.04
  -1   0  -6   -0.03    0.06
  -1   0  -6    0.06    0.05
  -1   0  -6    0.01    0.05
  -1   0  -6    0.02    0.05
  -1   0  -6    0.00    0.05
  -1   0  -6    0.04    0.05
   1   0   6    0.02    0.04
   1   0   6    0.02    0.05
   1   0   6    0.01    0.05
   1   0   6    0.03    0.05
   1   0   6    0.08    0.05
   1   0   6    0.09    0.05
  -2   0  -6   14.48    0.44
  -2   0  -6   15.63    0.43
  -2   0  -6   15.61    0.41
  -2   0  -6   15.43    0.44
  -2   0  -6   16.04    0.54
  -2   0  -6   15.30    0.34
  -2   0  -6   16.11    0.47
  -2   0  -6   14.97    0.47
   2   0   6   15.56    0.44
   2   0   6   15.54    0.44
   2   0   6   15.87    0.46
   2   0   6   14.93    0.40
   2   0   6   15.04    0.44
   2   0   6   15.22    0.35
  -3   0  -6   12.33    0.41
  -3   0  -6   13.19    0.40
  -3   0  -6   12.68    0.43
  -3   0  -6   12.96    0.32
  -3   0  -6   12.79    0.44
   3   0   6   13.01    0.41
   3   0   6   12.65    0.41
   3   0   6   12.78    0.39
   3   0   6   12.28    0.33
   3   0   6   12.46    0.36
  -4   0  -6    1.31    0.16
  -4   0  -6    1.20    0.16
   4   0   6    1.48    0.17
   4   0   6    1.13    0.12
   5  -1  -6    6.07    0.29
  -5   1   6    6.41    0.30
   4  -1  -6    1.24    0.15
   4  -1  -6    1.45    0.14
   4  -1  -6    1.32    0.14
   4  -1  -6    1.36    0.18
   4  -1  -6    1.33    0.09
   4  -1  -6    1.32    0.15
  -4   1   6    1.38    0.14
  -4   1   6    1.10    0.12
  -4   1   6    1.29    0.14
  -4   1   6    1.31    0.13
   3  -1  -6   15.78    0.54
   3  -1  -6   15.77    0.44
   3  -1  -6   16.35    0.46
   3  -1  -6   15.32    0.36
   3  -1  -6   16.21    0.48
   3  -1  -6   15.37    0.54
   3  -1  -6   15.17    0.45
   3  -1  -6   15.44    0.48
  -3   1   6   15.25    0.45
  -3   1   6   16.04    0.42
  -3   1   6   15.51    0.45
  -3   1   6   15.06    0.47
  -3   1   6   15.95    0.45
  -3   1   6   14.80    0.40
  -3   1   6   15.72    0.41
   2  -1  -6   27.69    0.70
   2  -1  -6   27.53    0.72
   2  -1  -6   27.92    0.72
   2  -1  -6   28.26    0.86
   2  -1  -6   28.25    0.85
   2  -1  -6   27.56    0.75
   2  -1  -6   27.30    0.75
  -2   1   6   27.99    0.71
  -2   1   6   26.42    0.72
  -2   1   6   27.31    0.75
  -2   1   6   27.77    0.72
  -2   1   6   28.27    0.59
  -2   1   6   27.14    0.65
  -2   1   6   26.72    0.64
  -2   1   6   29.03    0.66
  -2   1   6   27.24    0.70
   1  -1  -6    8.43    0.24
   1  -1  -6    8.08    0.23
   1  -1  -6    9.35    0.30
   1  -1  -6    8.55    0.25
   1  -1  -6    8.60    0.31
   1  -1  -6    8.70    0.26
   1  -1  -6    8.60    0.26
  -1   1   6    8.51    0.24
  -1   1   6    8.72    0.21
  -1   1   6    8.72    0.25
  -1   1   6    8.36    0.21
  -1   1   6    8.37    0.25
  -1   1   6    8.38    0.24
  -1   1   6    8.44    0.24
   0  -1  -6   13.16    0.42
   0  -1  -6   13.06    0.34
   0  -1  -6   13.27    0.38
   0  -1  -6   13.24    0.38
   0  -1  -6   12.51    0.43
   0  -1  -6   12.91    0.37
   0   1   6   12.97    0.31
   0   1   6   13.10    0.37
   0   1   6   13.11    0.36
   0   1   6   12.76    0.35
   0   1   6   13.02    0.37
  -1  -1  -6   40.06    1.04
  -1  -1  -6   38.24    1.17
  -1  -1  -6   39.94    0.99
  -1  -1  -6   38.76    0.91
  -1  -1  -6   38.98    1.19
  -1  -1  -6   39.19    0.98
  -1  -1  -6   38.29    1.00
  -1  -1  -6   39.08    1.04
   1   1   6   38.27    0.99
   1   1   6   38.44    1.04
   1   1   6   37.62    0.90
   1   1   6   39.51    0.97
   1   1   6   39.72    0.82
   1   1   6   38.27    0.97
   1   1   6   38.31    0.82
  -2  -1  -6   23.01    0.62
  -2  -1  -6   23.34    0.53
  -2  -1  -6   22.75    0.64
  -2  -1  -6   22.88    0.53
  -2  -1  -6   22.22    0.67
  -2  -1  -6   23.54    0.58
  -2  -1  -6   23.08    0.67
  -2  -1  -6   23.63    0.63
  -2  -1  -6   22.57    0.75
   2   1   6   22.92    0.52
   2   1   6   24.13    0.64
   2   1   6   22.22    0.57
   2   1   6   23.62    0.64
   2   1   6   22.28    0.62
   2   1   6   23.54    0.66
  -3  -1  -6    3.17    0.14
  -3  -1  -6    2.99    0.19
  -3  -1  -6    3.41    0.19
  -3  -1  -6    3.23    0.20
   3   1   6    2.93    0.14
   3   1   6    2.91    0.20
   3   1   6    3.13    0.19
   3   1   6    3.20    0.19
   3   1   6    2.94    0.17
  -4  -1  -6    1.58    0.17
  -4  -1  -6    1.79    0.18
   4   1   6    1.35    0.17
   4   1   6    1.54    0.12
   5  -2  -6    0.06    0.14
   5  -2  -6    0.19    0.14
  -5   2   6    0.29    0.14
   4  -2  -6   13.73    0.42
   4  -2  -6   13.41    0.46
   4  -2  -6   13.65    0.35
   4  -2  -6   13.21    0.53
   4  -2  -6   12.78    0.43
  -4   2   6   13.26    0.38
  -4   2   6   13.24    0.43
  -4   2   6   13.33    0.43
  -4   2   6   13.29    0.43
   3  -2  -6   21.28    0.61
   3  -2  -6   19.53    0.69
   3  -2  -6   20.68    0.61
   3  -2  -6   20.83    0.56
   3  -2  -6   21.23    0.58
   3  -2  -6   20.71    0.69
   3  -2  -6   19.95    0.58
   3  -2  -6   20.38    0.48
  -3   2   6   20.17    0.52
  -3   2   6   20.23    0.52
  -3   2   6   21.35    0.61
  -3   2   6   20.98    0.57
  -3   2   6   21.13    0.58
  -3   2   6   21.30    0.53
  -3   2   6   20.05    0.58
   2  -2  -6    2.50    0.12
   2  -2  -6    2.36    0.13
   2  -2  -6    2.50    0.14
   2  -2  -6    2.48    0.17
   2  -2  -6    2.52    0.14
   2  -2  -6    2.68    0.14
   2  -2  -6    2.71    0.18
  -2   2   6    2.43    0.12
  -2   2   6    2.72    0.13
  -2   2   6    2.58    0.14
  -2   2   6    2.62    0.13
  -2   2   6    2.46    0.10
  -2   2   6    2.42    0.11
  -2   2   6    2.51    0.13
   1  -2  -6   10.14    0.32
   1  -2  -6   10.66    0.30
   1  -2  -6   10.64    0.29
   1  -2  -6   10.51    0.33
   1  -2  -6   10.63    0.36
   1  -2  -6   10.77    0.33
   1  -2  -6   10.55    0.38
  -1   2   6   10.93    0.31
  -1   2   6   10.63    0.22
  -1   2   6   10.53    0.22
  -1   2   6   10.39    0.30
  -1   2   6   10.58    0.27
  -1   2   6   10.54    0.27
  -1   2   6   10.55    0.31
  -1   2   6   10.99    0.30
   0  -2  -6   37.79    1.16
   0  -2  -6   38.45    1.17
   0  -2  -6   39.02    1.04
   0  -2  -6   38.17    0.98
   0  -2  -6   39.17    1.04
   0  -2  -6   37.50    0.99
   0  -2  -6   38.81    0.96
   0   2   6   37.54    0.88
   0   2   6   38.91    0.80
   0   2   6   38.97    0.80
   0   2   6   38.13    0.97
   0   2   6   38.51    0.97
   0   2   6   38.58    1.02
   0   2   6   38.72    1.00
  -1  -2  -6   21.13    0.57
  -1  -2  -6   20.88    0.50
  -1  -2  -6   21.28    0.67
  -1  -2  -6   20.39    0.59
  -1  -2  -6   20.49    0.59
  -1  -2  -6   21.47    0.69
  -1  -2  -6   20.82    0.56
  -1  -2  -6   20.51    0.59
  -1  -2  -6   20.52    0.46
  -1  -2  -6   20.40    0.57
   1   2   6   20.86    0.45
   1   2   6   20.62    0.56
   1   2   6   20.73    0.57
   1   2   6   18.32    0.52
   1   2   6   20.63    0.55
   1   2   6   21.41    0.61
  -2  -2  -6    0.10    0.05
  -2  -2  -6    0.25    0.11
  -2  -2  -6    0.12    0.05
  -2  -2  -6    0.11    0.09
  -2  -2  -6    0.17    0.08
  -2  -2  -6    0.15    0.08
  -2  -2  -6    0.12    0.10
  -2  -2  -6   -0.08    0.07
  -2  -2  -6    0.08    0.08
  -2  -2  -6    0.20    0.07
   2   2   6    0.00    0.08
   2   2   6    0.06    0.08
   2   2   6    0.10    0.06
   2   2   6    0.03    0.07
   2   2   6    0.04    0.08
   2   2   6    0.07    0.08
  -3  -2  -6    8.09    0.32
  -3  -2  -6    8.94    0.25
  -3  -2  -6    8.81    0.35
  -3  -2  -6    9.03    0.32
   3   2   6    8.59    0.32
   3   2   6    8.74    0.29
   3   2   6    8.17    0.25
   3   2   6    8.17    0.32
  -4  -2  -6    0.25    0.13
  -4  -2  -6    0.08    0.12
   4   2   6    0.03    0.13
   4   2   6    0.10    0.10
   5  -3  -6   10.19    0.38
   5  -3  -6    9.14    0.38
  -5   3   6    9.70    0.39
   4  -3  -6    4.82    0.18
   4  -3  -6    4.60    0.30
   4  -3  -6    4.57    0.24
   4  -3  -6    4.90    0.25
   4  -3  -6    4.96    0.23
  -4   3   6    4.83    0.21
  -4   3   6    4.74    0.23
  -4   3   6    5.08    0.25
  -4   3   6    4.48    0.23
   3  -3  -6    1.45    0.14
   3  -3  -6    1.51    0.12
   3  -3  -6    1.75    0.15
   3  -3  -6    1.68    0.10
   3  -3  -6    1.73    0.17
   3  -3  -6    1.60    0.13
   3  -3  -6    1.67    0.17
   3  -3  -6    1.89    0.13
  -3   3   6    1.74    0.13
  -3   3   6    1.98    0.16
  -3   3   6    1.45    0.11
  -3   3   6    1.81    0.14
  -3   3   6    1.71    0.12
  -3   3   6    1.87    0.12
  -3   3   6    1.73    0.13
   2  -3  -6    1.45    0.11
   2  -3  -6    1.48    0.14
   2  -3  -6    1.33    0.11
   2  -3  -6    1.43    0.12
   2  -3  -6    1.48    0.11
   2  -3  -6    1.42    0.11
   2  -3  -6    1.45    0.13
  -2   3   6    1.36    0.10
  -2   3   6    1.54    0.12
  -2   3   6    1.40    0.12
  -2   3   6    1.49    0.11
  -2   3   6    1.37    0.11
  -2   3   6    1.53    0.11
   1  -3  -6   20.76    0.65
   1  -3  -6   19.78    0.52
   1  -3  -6   20.33    0.66
   1  -3  -6   21.06    0.59
   1  -3  -6   19.95    0.54
   1  -3  -6   19.62    0.56
   1  -3  -6   19.57    0.58
  -1   3   6   19.75    0.56
  -1   3   6   20.29    0.43
  -1   3   6   19.40    0.55
  -1   3   6   20.27    0.55
  -1   3   6   19.61    0.49
  -1   3   6   20.01    0.48
  -1   3   6   19.97    0.44
   0  -3  -6   17.74    0.53
   0  -3  -6   17.49    0.41
   0  -3  -6   17.41    0.50
   0  -3  -6   17.81    0.47
   0  -3  -6   17.18    0.57
   0  -3  -6   17.61    0.60
   0  -3  -6   17.62    0.49
   0  -3  -6   17.19    0.53
   0   3   6   19.21    0.51
   0   3   6   16.89    0.51
   0   3   6   17.38    0.44
   0   3   6   17.03    0.38
   0   3   6   17.36    0.49
  -1  -3  -6    4.12    0.12
  -1  -3  -6    4.24    0.20
  -1  -3  -6    4.20    0.19
  -1  -3  -6    3.99    0.14
  -1  -3  -6    3.97    0.19
  -1  -3  -6    4.21    0.21
  -1  -3  -6    4.26    0.21
  -1  -3  -6    4.04    0.17
  -1  -3  -6    4.24    0.20
  -1  -3  -6    3.68    0.25
   1   3   6    3.87    0.18
   1   3   6    3.95    0.19
   1   3   6    4.41    0.20
   1   3   6    4.31    0.13
   1   3   6    4.26    0.18
   1   3   6    4.11    0.22
  -2  -3  -6   15.80    0.49
  -2  -3  -6   15.32    0.41
  -2  -3  -6   15.26    0.46
  -2  -3  -6   14.98    0.48
  -2  -3  -6   15.01    0.56
  -2  -3  -6   15.28    0.46
  -2  -3  -6   15.02    0.54
  -2  -3  -6   14.89    0.46
   2   3   6   14.91    0.45
   2   3   6   14.54    0.42
   2   3   6   15.35    0.46
   2   3   6   14.90    0.49
   2   3   6   14.83    0.37
   2   3   6   14.94    0.47
  -3  -3  -6    8.36    0.35
  -3  -3  -6    7.56    0.32
  -3  -3  -6    8.01    0.31
   3   3   6    7.55    0.30
   3   3   6    7.76    0.25
   3   3   6    8.51    0.30
   3   3   6    7.97    0.32
  -4  -3  -6   -0.02    0.13
  -4  -3  -6   -0.02    0.13
   4   3   6   -0.05    0.10
   4   3   6    0.10    0.13
   5  -4  -6    0.54    0.15
   5  -4  -6    0.49    0.16
  -5   4   6    0.45    0.15
   4  -4  -6    2.26    0.17
   4  -4  -6    1.73    0.22
   4  -4  -6    1.96    0.18
   4  -4  -6    1.75    0.17
  -4   4   6    1.71    0.15
  -4   4   6    2.03    0.15
  -4   4   6    1.91    0.17
  -4   4   6    1.61    0.17
   3  -4  -6    8.75    0.25
   3  -4  -6    8.50    0.33
   3  -4  -6    8.96    0.27
   3  -4  -6    9.34    0.33
   3  -4  -6    8.95    0.39
   3  -4  -6    8.80    0.31
   3  -4  -6    8.70    0.37
   3  -4  -6    9.40    0.31
   3  -4  -6    8.94    0.33
  -3   4   6    8.73    0.31
  -3   4   6    8.88    0.28
  -3   4   6    8.85    0.28
  -3   4   6    9.21    0.27
  -3   4   6    8.87    0.31
  -3   4   6    9.20    0.33
  -3   4   6    8.65    0.31
   2  -4  -6   18.63    0.56
   2  -4  -6   18.92    0.45
   2  -4  -6   17.70    0.62
   2  -4  -6   18.55    0.46
   2  -4  -6   19.44    0.52
   2  -4  -6   19.31    0.65
   2  -4  -6   19.94    0.54
   2  -4  -6   18.42    0.53
   2  -4  -6   19.64    0.57
  -2   4   6   18.60    0.47
  -2   4   6   18.64    0.48
  -2   4   6   18.73    0.55
  -2   4   6   19.68    0.53
  -2   4   6   18.12    0.53
  -2   4   6   18.28    0.53
   1  -4  -6    1.89    0.17
   1  -4  -6    2.09    0.16
   1  -4  -6    2.01    0.13
   1  -4  -6    2.14    0.18
   1  -4  -6    2.33    0.16
   1  -4  -6    2.12    0.16
   1  -4  -6    1.97    0.14
   1  -4  -6    2.03    0.07
  -1   4   6    2.16    0.14
  -1   4   6    2.09    0.11
  -1   4   6    2.03    0.15
  -1   4   6    2.20    0.10
  -1   4   6    1.71    0.14
  -1   4   6    1.98    0.12
   0  -4  -6    8.49    0.34
   0  -4  -6    8.60    0.22
   0  -4  -6    8.73    0.32
   0  -4  -6    8.31    0.37
   0  -4  -6    8.81    0.30
   0  -4  -6    8.78    0.29
   0  -4  -6    8.68    0.28
   0  -4  -6    8.40    0.31
   0   4   6    8.41    0.31
   0   4   6    8.55    0.25
   0   4   6    9.09    0.31
   0   4   6    8.44    0.22
   0   4   6    9.24    0.30
   0   4   6    8.36    0.26
  -1  -4  -6   11.54    0.30
  -1  -4  -6    9.22    0.46
  -1  -4  -6   11.83    0.39
  -1  -4  -6   11.55    0.38
  -1  -4  -6   11.52    0.36
  -1  -4  -6   10.89    0.38
  -1  -4  -6   11.30    0.29
  -1  -4  -6   11.81    0.43
  -1  -4  -6   11.21    0.39
   1   4   6   10.66    0.41
   1   4   6   11.35    0.37
   1   4   6   11.49    0.36
   1   4   6   11.42    0.37
   1   4   6   11.53    0.35
   1   4   6   11.32    0.28
  -2  -4  -6   13.77    0.46
  -2  -4  -6   15.14    0.49
  -2  -4  -6   15.24    0.58
  -2  -4  -6   14.32    0.48
  -2  -4  -6   14.81    0.40
  -2  -4  -6   14.24    0.54
  -2  -4  -6   14.35    0.46
   2   4   6   14.72    0.46
   2   4   6   14.41    0.46
   2   4   6   13.36    0.44
   2   4   6   14.55    0.43
   2   4   6   14.26    0.36
  -3  -4  -6    0.57    0.13
  -3  -4  -6    0.52    0.13
   3   4   6    0.63    0.13
   3   4   6    0.64    0.09
   3   4   6    0.79    0.14
  -4  -4  -6    0.30    0.15
   4   4   6    0.22    0.11
   4   4   6    0.12    0.14
   5  -5  -6   -0.02    0.14
   5  -5  -6    0.09    0.15
  -5   5   6    0.29    0.14
   4  -5  -6    6.18    0.27
   4  -5  -6    5.92    0.27
   4  -5  -6    5.64    0.30
  -4   5   6    5.45    0.27
  -4   5   6    5.82    0.28
  -4   5   6    5.74    0.25
   3  -5  -6   12.20    0.35
   3  -5  -6   13.10    0.40
   3  -5  -6   12.07    0.41
   3  -5  -6   12.30    0.49
   3  -5  -6   12.66    0.49
   3  -5  -6   13.47    0.43
   3  -5  -6   12.92    0.43
   3  -5  -6   12.91    0.34
  -3   5   6   12.50    0.37
  -3   5   6   12.18    0.41
  -3   5   6   12.76    0.41
  -3   5   6   11.78    0.39
  -3   5   6   12.88    0.36
   2  -5  -6    1.64    0.13
   2  -5  -6    1.79    0.14
   2  -5  -6    1.93    0.16
   2  -5  -6    1.75    0.15
   2  -5  -6    1.61    0.10
   2  -5  -6    1.70    0.17
   2  -5  -6    1.67    0.10
   2  -5  -6    1.80    0.18
   2  -5  -6    1.57    0.13
  -2   5   6    1.61    0.13
  -2   5   6    1.64    0.12
  -2   5   6    1.75    0.12
  -2   5   6    1.68    0.14
  -2   5   6    1.90    0.14
   1  -5  -6    5.24    0.15
   1  -5  -6    4.63    0.26
   1  -5  -6    5.03    0.28
   1  -5  -6    5.76    0.24
   1  -5  -6    4.02    0.23
   1  -5  -6    5.37    0.23
   1  -5  -6    5.72    0.28
   1  -5  -6    5.23    0.21
   1  -5  -6    5.29    0.16
  -1   5   6    5.18    0.24
  -1   5   6    5.21    0.16
  -1   5   6    5.10    0.18
  -1   5   6    5.18    0.19
  -1   5   6    5.14    0.23
  -1   5   6    4.75    0.23
   0  -5  -6   27.29    0.79
   0  -5  -6   26.67    0.62
   0  -5  -6   26.33    0.75
   0  -5  -6   27.25    0.79
   0  -5  -6   27.43    0.90
   0  -5  -6   26.23    0.72
   0  -5  -6   26.69    0.87
   0  -5  -6   27.46    0.74
   0   5   6   27.28    0.75
   0   5   6   26.40    0.66
   0   5   6   27.28    0.73
   0   5   6   26.49    0.60
   0   5   6   25.99    0.65
   0   5   6   27.13    0.78
  -1  -5  -6   29.26    0.80
  -1  -5  -6   28.92    0.84
  -1  -5  -6   28.73    0.93
  -1  -5  -6   28.63    0.67
  -1  -5  -6   26.16    0.97
  -1  -5  -6   28.19    0.82
  -1  -5  -6   29.84    0.79
  -1  -5  -6   26.79    0.82
   1   5   6   27.38    0.63
   1   5   6   29.31    0.72
   1   5   6   28.75    0.70
   1   5   6   27.66    0.77
   1   5   6   28.97    0.87
   1   5   6   28.14    0.80
  -2  -5  -6   20.96    0.65
  -2  -5  -6   22.54    0.69
  -2  -5  -6   20.18    0.79
  -2  -5  -6   22.70    0.66
  -2  -5  -6   22.14    0.57
   2   5   6   21.94    0.51
   2   5   6   22.51    0.66
   2   5   6   20.03    0.59
   2   5   6   21.97    0.64
  -3  -5  -6    0.90    0.15
  -3  -5  -6    0.69    0.14
   3   5   6    0.41    0.13
   3   5   6    0.82    0.15
   3   5   6    0.64    0.14
   3   5   6    0.45    0.10
   5  -6  -6    0.87    0.18
   5  -6  -6    0.40    0.16
  -5   6   6    0.47    0.17
   4  -6  -6    0.38    0.13
   4  -6  -6    0.30    0.13
   4  -6  -6    0.39    0.10
  -4   6   6    0.28    0.13
  -4   6   6    0.33    0.11
  -4   6   6    0.27    0.14
   3  -6  -6    0.71    0.09
   3  -6  -6    0.59    0.12
   3  -6  -6    0.61    0.09
   3  -6  -6    0.86    0.13
   3  -6  -6    0.57    0.13
   3  -6  -6    0.89    0.17
  -3   6   6    0.77    0.11
  -3   6   6    0.67    0.12
  -3   6   6    0.61    0.12
  -3   6   6    0.64    0.12
   2  -6  -6    5.64    0.23
   2  -6  -6    5.34    0.31
   2  -6  -6    5.55    0.18
   2  -6  -6    5.78    0.26
   2  -6  -6    6.13    0.28
   2  -6  -6    5.84    0.26
   2  -6  -6    5.50    0.18
   2  -6  -6    5.04    0.23
   2  -6  -6    5.57    0.18
   2  -6  -6    5.33    0.29
  -2   6   6    5.22    0.22
  -2   6   6    5.49    0.26
  -2   6   6    5.51    0.21
  -2   6   6    5.40    0.25
  -2   6   6    5.75    0.25
   1  -6  -6   18.94    0.56
   1  -6  -6   18.98    0.65
   1  -6  -6   18.16    0.45
   1  -6  -6   16.47    0.59
   1  -6  -6   19.17    0.62
   1  -6  -6   17.59    0.56
   1  -6  -6   18.75    0.53
   1  -6  -6   18.95    0.45
   1  -6  -6   17.98    0.65
  -1   6   6   18.68    0.48
  -1   6   6   17.12    0.57
  -1   6   6   19.37    0.57
  -1   6   6   18.76    0.58
  -1   6   6   18.07    0.48
   0  -6  -6    3.26    0.19
   0  -6  -6    3.30    0.20
   0  -6  -6    3.62    0.14
   0  -6  -6    3.62    0.21
   0  -6  -6    3.84    0.22
   0  -6  -6    3.98    0.27
   0  -6  -6    3.51    0.19
   0  -6  -6    3.12    0.23
   0   6   6    3.62    0.16
   0   6   6    3.62    0.22
   0   6   6    3.82    0.15
   0   6   6    3.58    0.21
   0   6   6    3.38    0.17
   0   6   6    3.62    0.21
  -1  -6  -6    6.53    0.29
  -1  -6  -6    6.58    0.31
  -1  -6  -6    6.75    0.32
  -1  -6  -6    6.70    0.37
  -1  -6  -6    6.74    0.30
   1   6   6    6.80    0.24
   1   6   6    6.17    0.29
   1   6   6    7.15    0.26
   1   6   6    7.05    0.21
   1   6   6    6.41    0.27
  -2  -6  -6   14.95    0.52
  -2  -6  -6   15.69    0.53
  -2  -6  -6   16.00    0.44
  -2  -6  -6   15.58    0.53
   2   6   6   15.77    0.52
   2   6   6   14.04    0.47
   2   6   6   15.27    0.50
   2   6   6   15.31    0.39
  -3  -6  -6    0.90    0.17
  -3  -6  -6    0.77    0.16
   3   6   6    0.73    0.15
   3   6   6    0.69    0.11
   3   6   6    1.10    0.18
   3   6   6    0.92    0.17
   4  -7  -6    1.44    0.18
   4  -7  -6    1.50    0.18
   4  -7  -6    1.35    0.14
  -4   7   6    1.55    0.19
  -4   7   6    1.54    0.18
   3  -7  -6    9.23    0.30
   3  -7  -6    8.95    0.38
   3  -7  -6    9.64    0.36
   3  -7  -6    9.41    0.35
  -3   7   6   10.16    0.35
  -3   7   6    9.51    0.36
  -3   7   6    9.45    0.31
  -3   7   6    9.27    0.36
   2  -7  -6    7.60    0.24
   2  -7  -6    7.91    0.34
   2  -7  -6    8.00    0.30
   2  -7  -6    7.72    0.37
   2  -7  -6    8.35    0.34
   2  -7  -6    7.35    0.24
   2  -7  -6    7.71    0.32
  -2   7   6    7.53    0.27
  -2   7   6    7.17    0.32
  -2   7   6    8.11    0.33
  -2   7   6    7.16    0.26
   1  -7  -6    0.16    0.10
   1  -7  -6    0.13    0.06
   1  -7  -6    0.05    0.06
   1  -7  -6    0.10    0.11
   1  -7  -6    0.24    0.12
   1  -7  -6    0.12    0.12
   1  -7  -6   -0.03    0.13
   1  -7  -6    0.19    0.13
  -1   7   6    0.11    0.12
  -1   7   6    0.03    0.08
  -1   7   6    0.11    0.08
  -1   7   6    0.10    0.11
   0  -7  -6    6.54    0.30
   0  -7  -6    6.29    0.29
   0  -7  -6    6.16    0.34
   0  -7  -6    6.33    0.27
   0  -7  -6    6.21    0.27
   0   7   6    6.06    0.23
   0   7   6    6.12    0.24
   0   7   6    6.18    0.20
   0   7   6    6.23    0.27
   0   7   6    6.41    0.29
  -1  -7  -6    7.22    0.37
  -1  -7  -6    5.53    0.29
  -1  -7  -6    6.16    0.31
  -1  -7  -6    6.68    0.29
   1   7   6    6.17    0.26
   1   7   6    6.20    0.30
   1   7   6    6.30    0.21
   1   7   6    5.98    0.29
  -2  -7  -6    0.12    0.15
  -2  -7  -6    0.00    0.13
   2   7   6    0.14    0.13
   2   7   6    0.08    0.08
   2   7   6    0.02    0.12
  -3  -7  -6    0.97    0.18
  -3  -7  -6    0.87    0.20
   3   7   6    1.07    0.17
   3   7   6    0.79    0.12
   4  -8  -6    1.33    0.18
   4  -8  -6    1.38    0.18
  -4   8   6    1.18    0.19
  -4   8   6    1.23    0.18
   3  -8  -6    2.00    0.14
   3  -8  -6    1.89    0.19
   3  -8  -6    1.62    0.18
  -3   8   6    1.83    0.19
  -3   8   6    1.82    0.18
  -3   8   6    1.77    0.19
   2  -8  -6    0.09    0.12
   2  -8  -6   -0.12    0.12
   2  -8  -6   -0.10    0.13
   2  -8  -6    0.05    0.07
  -2   8   6   -0.35    0.12
  -2   8   6    0.08    0.14
  -2   8   6    0.10    0.09
   1  -8  -6    1.82    0.22
   1  -8  -6    2.11    0.18
   1  -8  -6    1.62    0.11
   1  -8  -6    2.07    0.20
   1  -8  -6    1.93    0.19
  -1   8   6    1.86    0.20
  -1   8   6    1.75    0.15
  -1   8   6    1.80    0.18
   0  -8  -6   15.50    0.61
   0  -8  -6   15.65    0.50
   0  -8  -6   15.40    0.51
   0  -8  -6   15.17    0.54
   0   8   6   15.74    0.52
   0   8   6   15.56    0.45
   0   8   6   15.86    0.50
  -1  -8  -6   -0.04    0.11
  -1  -8  -6   -0.02    0.11
   1   8   6   -0.11    0.10
   1   8   6   -0.08    0.12
   1   8   6   -0.05    0.08
  -2  -8  -6    2.00    0.23
  -2  -8  -6    1.55    0.22
   2   8   6    1.66    0.21
   2   8   6    1.71    0.13
   2   8   6    1.23    0.18
   4  -9  -6    0.26    0.16
   4  -9  -6    0.26    0.16
  -4   9   6   -0.18    0.14
  -4   9   6    0.18    0.17
   3  -9  -6    0.52    0.16
   3  -9  -6    0.74    0.16
  -3   9   6    0.53    0.17
  -3   9   6    0.49    0.18
   2  -9  -6    3.51    0.23
   2  -9  -6    3.42    0.17
   2  -9  -6    3.22    0.25
  -2   9   6    3.45    0.27
  -2   9   6    3.02    0.25
   1  -9  -6    7.33    0.33
   1  -9  -6    6.97    0.32
   1  -9  -6    7.64    0.36
   1  -9  -6    6.85    0.24
  -1   9   6    7.71    0.33
  -1   9   6    7.51    0.35
   0  -9  -6    0.88    0.15
   0  -9  -6    0.98    0.15
   0   9   6    1.08    0.16
   0   9   6    1.05    0.15
  -1  -9  -6    2.48    0.21
  -1  -9  -6    3.01    0.23
   1   9   6    2.76    0.16
   1   9   6    3.08    0.24
   1   9   6    2.79    0.22
  -2  -9  -6    4.95    0.34
  -2  -9  -6    5.56    0.34
   2   9   6    5.09    0.22
   2   9   6    4.51    0.32
   2   9   6    4.42    0.30
   3 -10  -6    4.04    0.29
   3 -10  -6    3.81    0.28
  -3  10   6    3.72    0.30
  -3  10   6    3.76    0.29
   2 -10  -6    3.56    0.27
   2 -10  -6    2.49    0.24
  -2  10   6    3.27    0.27
  -2  10   6    2.66    0.25
   1 -10  -6   -0.07    0.13
   1 -10  -6   -0.06    0.13
  -1  10   6   -0.08    0.12
  -1  10   6   -0.09    0.13
   0 -10  -6    5.78    0.28
   0 -10  -6    5.76    0.29
   0  10   6    5.87    0.32
   0  10   6    5.33    0.29
  -1 -10  -6    1.46    0.18
  -1 -10  -6    1.03    0.17
   1  10   6    1.35    0.19
   1  10   6    0.98    0.17
   3 -11  -6    2.67    0.26
   3 -11  -6    2.73    0.27
  -3  11   6    1.83    0.26
  -3  11   6    2.50    0.28
   2 -11  -6    5.30    0.33
   2 -11  -6    6.18    0.35
  -2  11   6    5.81    0.35
  -2  11   6    6.22    0.38
   1 -11  -6    1.36    0.19
   1 -11  -6    1.42    0.19
  -1  11   6    1.10    0.18
  -1  11   6    1.55    0.20
   0 -11  -6    0.98    0.17
   0 -11  -6    1.37    0.18
   0  11   6    1.05    0.18
   0  11   6    1.13    0.18
  -1 -11  -6    0.24    0.15
  -1 -11  -6   -0.03    0.14
   1  11   6    0.15    0.15
   1  11   6    0.22    0.15
   2 -12  -6    1.67    0.23
  -2  12   6    1.66    0.24
  -2  12   6    1.69    0.25
   1 -12  -6    0.59    0.17
   1 -12  -6    0.55    0.18
  -1  12   6    0.68    0.18
  -1  12   6    0.63    0.18
  -1  12   6    0.53    0.18
   1  13  -7    0.17    0.13
   1  13  -7    0.30    0.19
   1  13  -7    0.17    0.14
  -1 -13   7    0.19    0.13
  -1 -13   7    0.26    0.09
   0  13  -7    0.10    0.18
   0  13  -7   -0.03    0.13
   0  13  -7    0.03    0.12
   0 -13   7    0.05    0.14
   0 -13   7    0.08    0.09
  -1  13  -7    1.87    0.25
  -1  13  -7    1.43    0.17
  -1  13  -7    1.59    0.19
   1 -13   7    1.62    0.19
   1 -13   7    1.67    0.13
   2  12  -7    0.53    0.17
   2  12  -7    0.50    0.14
   2  12  -7    0.43    0.23
  -2 -12   7    0.37    0.16
   1  12  -7    0.88    0.15
   1  12  -7    0.77    0.20
   1  12  -7    1.10    0.15
  -1 -12   7    0.84    0.15
   0  12  -7    3.30    0.23
   0  12  -7    3.16    0.30
   0  12  -7    3.24    0.21
   0 -12   7    3.34    0.16
   0 -12   7    3.52    0.24
  -1  12  -7    2.45    0.25
  -1  12  -7    2.17    0.20
  -1  12  -7    2.34    0.19
   1 -12   7    2.26    0.19
   1 -12   7    2.15    0.15
  -2  12  -7    0.74    0.17
  -2  12  -7    0.60    0.14
  -2  12  -7    0.59    0.20
   2 -12   7    0.58    0.15
   2 -12   7    0.72    0.12
   3  11  -7    0.10    0.18
   3  11  -7   -0.06    0.13
   2  11  -7    0.62    0.18
   2  11  -7    0.83    0.23
   2  11  -7    0.72    0.14
  -2 -11   7    0.68    0.13
  -2 -11   7    0.95    0.19
   1  11  -7    4.33    0.25
   1  11  -7    4.25    0.23
   1  11  -7    4.39    0.32
   1  11  -7    4.42    0.27
  -1 -11   7    4.59    0.25
   0  11  -7    2.58    0.21
   0  11  -7    2.37    0.20
   0  11  -7    2.47    0.18
   0  11  -7    2.57    0.24
   0  11  -7    2.73    0.25
   0 -11   7    2.55    0.20
   0 -11   7    2.67    0.13
  -1  11  -7    0.12    0.12
  -1  11  -7   -0.07    0.10
  -1  11  -7    0.08    0.15
  -1  11  -7   -0.02    0.12
   1 -11   7    0.07    0.11
   1 -11   7    0.12    0.07
  -2  11  -7    1.55    0.16
  -2  11  -7    1.46    0.17
  -2  11  -7    1.50    0.22
   2 -11   7    1.69    0.14
   2 -11   7    1.75    0.17
   3  10  -7    0.67    0.17
   3  10  -7    0.90    0.16
   3  10  -7    0.98    0.24
  -3 -10   7    0.96    0.16
   2  10  -7    3.44    0.28
   2  10  -7    3.35    0.21
   2  10  -7    2.91    0.30
   2  10  -7    3.57    0.23
  -2 -10   7    3.50    0.27
  -2 -10   7    3.18    0.21
   1  10  -7    1.46    0.21
   1  10  -7    1.59    0.14
   1  10  -7    1.56    0.16
   1  10  -7    2.00    0.21
   1  10  -7    1.59    0.17
  -1 -10   7    1.57    0.13
  -1 -10   7    1.97    0.15
  -1 -10   7    1.67    0.15
   0  10  -7    5.57    0.23
   0  10  -7    5.75    0.27
   0  10  -7    5.72    0.30
   0  10  -7    5.37    0.26
   0  10  -7    6.28    0.34
   0 -10   7    5.71    0.21
   0 -10   7    5.50    0.25
  -1  10  -7    5.40    0.27
  -1  10  -7    5.15    0.24
  -1  10  -7    5.12    0.22
  -1  10  -7    4.96    0.29
  -1  10  -7    4.98    0.32
   1 -10   7    5.33    0.20
   1 -10   7    5.25    0.17
   1 -10   7    5.03    0.24
  -2  10  -7    0.08    0.15
  -2  10  -7    0.03    0.11
  -2  10  -7    0.14    0.11
   2 -10   7    0.29    0.10
   2 -10   7    0.10    0.11
  -3  10  -7    0.05    0.14
  -3  10  -7    0.10    0.13
   3 -10   7    0.18    0.11
   3 -10   7    0.15    0.13
   3   9  -7    1.54    0.17
   3   9  -7    1.95    0.25
   3   9  -7    1.80    0.19
  -3  -9   7    1.77    0.17
   2   9  -7    0.21    0.11
   2   9  -7    0.33    0.13
   2   9  -7    0.24    0.11
   2   9  -7    0.00    0.17
   2   9  -7    0.23    0.13
  -2  -9   7    0.22    0.10
  -2  -9   7    0.22    0.11
   1   9  -7    4.93    0.29
   1   9  -7    4.69    0.24
   1   9  -7    4.39    0.20
   1   9  -7    4.40    0.20
   1   9  -7    4.70    0.23
   1   9  -7    4.82    0.27
  -1  -9   7    4.75    0.19
  -1  -9   7    4.83    0.19
  -1  -9   7    4.73    0.20
  -1  -9   7    4.46    0.23
   0   9  -7   33.12    1.07
   0   9  -7   31.60    0.86
   0   9  -7   33.72    0.94
   0   9  -7   31.99    0.92
   0   9  -7   31.90    1.04
   0  -9   7   34.75    0.83
   0  -9   7   33.20    0.79
   0  -9   7   33.45    0.87
   0  -9   7   32.97    0.78
  -1   9  -7    0.08    0.12
  -1   9  -7    0.32    0.14
  -1   9  -7    0.20    0.10
  -1   9  -7    0.12    0.08
  -1   9  -7    0.16    0.10
   1  -9   7    0.19    0.06
   1  -9   7    0.15    0.10
   1  -9   7    0.17    0.09
   1  -9   7    0.14    0.07
  -2   9  -7    0.72    0.19
  -2   9  -7    0.93    0.14
  -2   9  -7    0.81    0.12
  -2   9  -7    0.97    0.17
  -2   9  -7    1.05    0.14
   2  -9   7    0.75    0.10
   2  -9   7    0.77    0.13
   2  -9   7    0.83    0.10
   2  -9   7    0.75    0.13
  -3   9  -7    3.19    0.21
  -3   9  -7    3.32    0.24
  -3   9  -7    3.09    0.30
   3  -9   7    3.37    0.22
   3  -9   7    3.47    0.19
   4   8  -7    0.14    0.14
   4   8  -7    0.48    0.14
   4   8  -7    0.28    0.13
  -4  -8   7    0.19    0.13
   3   8  -7    0.20    0.16
   3   8  -7    0.15    0.12
   3   8  -7    0.08    0.11
   3   8  -7    0.06    0.11
  -3  -8   7    0.19    0.11
   2   8  -7    6.07    0.25
   2   8  -7    5.47    0.26
   2   8  -7    6.39    0.31
   2   8  -7    5.90    0.34
   2   8  -7    5.71    0.26
  -2  -8   7    6.13    0.25
  -2  -8   7    6.23    0.21
  -2  -8   7    6.35    0.25
   1   8  -7    9.44    0.38
   1   8  -7    9.54    0.34
   1   8  -7    9.07    0.30
   1   8  -7    9.97    0.40
   1   8  -7    9.80    0.34
   1   8  -7    9.08    0.30
  -1  -8   7    9.45    0.27
  -1  -8   7    9.87    0.30
  -1  -8   7    9.37    0.27
  -1  -8   7    9.94    0.34
   0   8  -7    0.45    0.08
   0   8  -7    0.57    0.11
   0   8  -7    0.40    0.14
   0   8  -7    0.34    0.09
   0   8  -7    0.46    0.11
   0   8  -7    0.57    0.09
   0   8  -7    0.46    0.07
   0  -8   7    0.53    0.07
   0  -8   7    0.51    0.07
   0  -8   7    0.51    0.08
   0  -8   7    0.52    0.09
   0  -8   7    0.42    0.07
  -1   8  -7    6.17    0.25
  -1   8  -7    6.05    0.30
  -1   8  -7    5.87    0.21
  -1   8  -7    6.27    0.24
  -1   8  -7    6.04    0.28
   1  -8   7    5.82    0.22
   1  -8   7    5.74    0.19
   1  -8   7    5.54    0.22
   1  -8   7    5.94    0.16
   1  -8   7    6.01    0.25
  -2   8  -7    9.29    0.41
  -2   8  -7    9.78    0.34
  -2   8  -7    9.57    0.34
  -2   8  -7    9.12    0.31
  -2   8  -7    9.55    0.39
   2  -8   7    8.06    0.26
   2  -8   7    8.77    0.32
   2  -8   7    9.37    0.28
   2  -8   7    9.41    0.32
  -3   8  -7    5.58    0.27
  -3   8  -7    6.74    0.30
  -3   8  -7    6.46    0.37
   3  -8   7    6.28    0.28
   3  -8   7    6.21    0.23
   4   7  -7    0.15    0.13
   4   7  -7   -0.01    0.16
   4   7  -7    0.20    0.13
  -4  -7   7   -0.01    0.12
   3   7  -7    2.83    0.20
   3   7  -7    2.69    0.19
   3   7  -7    3.16    0.25
   3   7  -7    2.84    0.20
   3   7  -7    2.97    0.19
   3   7  -7    2.93    0.23
  -3  -7   7    2.99    0.19
  -3  -7   7    2.78    0.19
   2   7  -7    7.45    0.29
   2   7  -7    7.46    0.28
   2   7  -7    7.89    0.29
   2   7  -7    7.79    0.33
   2   7  -7    8.09    0.36
   2   7  -7    7.74    0.28
  -2  -7   7    8.25    0.24
  -2  -7   7    8.37    0.29
  -2  -7   7    8.25    0.28
   1   7  -7    0.01    0.06
   1   7  -7    0.03    0.10
   1   7  -7    0.01    0.09
   1   7  -7   -0.02    0.06
   1   7  -7    0.04    0.07
   1   7  -7   -0.10    0.08
   1   7  -7    0.01    0.07
  -1  -7   7   -0.04    0.05
  -1  -7   7    0.05    0.05
  -1  -7   7    0.06    0.09
  -1  -7   7   -0.02    0.06
  -1  -7   7    0.10    0.06
   0   7  -7   20.78    0.65
   0   7  -7   20.15    0.67
   0   7  -7   20.17    0.54
   0   7  -7   20.95    0.59
   0   7  -7   20.61    0.55
   0   7  -7   20.11    0.57
   0  -7   7   19.64    0.49
   0  -7   7   20.50    0.54
   0  -7   7   20.49    0.55
   0  -7   7   19.94    0.48
   0  -7   7   21.14    0.52
   0  -7   7   20.28    0.54
  -1   7  -7    1.37    0.15
  -1   7  -7    1.13    0.11
  -1   7  -7    1.31    0.11
  -1   7  -7    1.39    0.13
  -1   7  -7    1.15    0.10
  -1   7  -7    1.46    0.11
   1  -7   7    1.45    0.13
   1  -7   7    1.41    0.10
   1  -7   7    1.39    0.10
   1  -7   7    1.32    0.11
   1  -7   7    1.23    0.08
  -2   7  -7    7.04    0.26
  -2   7  -7    6.89    0.28
  -2   7  -7    7.32    0.28
  -2   7  -7    7.51    0.33
  -2   7  -7    6.82    0.33
   2  -7   7    7.38    0.26
   2  -7   7    6.96    0.24
   2  -7   7    7.15    0.27
   2  -7   7    6.96    0.22
   2  -7   7    7.12    0.23
  -3   7  -7    0.11    0.12
  -3   7  -7    0.11    0.11
  -3   7  -7    0.20    0.15
   3  -7   7    0.10    0.09
   3  -7   7    0.08    0.11
   3  -7   7   -0.03    0.11
   3  -7   7    0.31    0.09
  -4   7  -7    2.78    0.22
   4  -7   7    2.72    0.18
   4  -7   7    2.75    0.22
   4   6  -7    1.11    0.19
   4   6  -7    1.08    0.15
   4   6  -7    0.92    0.15
  -4  -6   7    1.10    0.15
   3   6  -7    2.22    0.17
   3   6  -7    2.43    0.20
   3   6  -7    2.25    0.16
   3   6  -7    2.54    0.18
   3   6  -7    2.32    0.21
  -3  -6   7    2.12    0.17
  -3  -6   7    2.19    0.16
   2   6  -7    0.45    0.09
   2   6  -7    0.41    0.11
   2   6  -7    0.41    0.10
   2   6  -7    0.49    0.09
   2   6  -7    0.41    0.09
   2   6  -7    0.39    0.07
   2   6  -7    0.46    0.09
  -2  -6   7    0.39    0.08
  -2  -6   7    0.35    0.07
  -2  -6   7    0.40    0.08
  -2  -6   7    0.44    0.09
   1   6  -7   30.68    0.80
   1   6  -7   30.76    0.84
   1   6  -7   32.50    0.79
   1   6  -7   31.85    0.96
   1   6  -7   27.74    0.86
   1   6  -7   31.31    0.95
   1   6  -7   30.59    0.79
  -1  -6   7   31.61    0.71
  -1  -6   7   31.92    0.80
  -1  -6   7   30.68    0.71
  -1  -6   7   32.73    0.79
  -1  -6   7   31.20    0.80
  -1  -6   7   31.22    0.80
   0   6  -7   38.90    1.04
   0   6  -7   38.79    1.18
   0   6  -7   38.75    1.16
   0   6  -7   39.09    0.97
   0   6  -7   39.30    0.97
   0   6  -7   38.10    1.02
   0  -6   7   38.64    0.97
   0  -6   7   40.20    0.95
   0  -6   7   38.72    0.97
   0  -6   7   38.13    0.87
   0  -6   7   39.12    0.96
   0  -6   7   37.62    0.87
  -1   6  -7    4.88    0.17
  -1   6  -7    4.68    0.23
  -1   6  -7    4.98    0.18
  -1   6  -7    4.79    0.14
  -1   6  -7    4.77    0.19
  -1   6  -7    4.67    0.22
  -1   6  -7    4.70    0.19
   1  -6   7    4.71    0.17
   1  -6   7    4.74    0.18
   1  -6   7    4.79    0.18
   1  -6   7    5.26    0.17
   1  -6   7    4.94    0.18
   1  -6   7    4.90    0.15
   1  -6   7    4.84    0.19
  -2   6  -7    4.78    0.26
  -2   6  -7    4.99    0.22
  -2   6  -7    4.73    0.21
  -2   6  -7    4.76    0.20
  -2   6  -7    4.80    0.27
   2  -6   7    4.60    0.18
   2  -6   7    4.61    0.21
   2  -6   7    5.08    0.18
   2  -6   7    4.91    0.20
   2  -6   7    4.83    0.21
   2  -6   7    4.67    0.16
  -3   6  -7   10.65    0.39
  -3   6  -7   10.27    0.35
  -3   6  -7   10.06    0.38
  -3   6  -7   10.37    0.45
   3  -6   7   10.66    0.36
   3  -6   7   10.16    0.35
   3  -6   7   10.03    0.32
   3  -6   7   10.45    0.29
  -4   6  -7    3.03    0.25
  -4   6  -7    3.65    0.23
   4  -6   7    3.67    0.24
   4  -6   7    3.12    0.18
   5   5  -7    1.58    0.19
  -5  -5   7    1.24    0.18
   4   5  -7    0.50    0.13
   4   5  -7    0.42    0.13
   4   5  -7    0.48    0.13
   4   5  -7    0.61    0.17
  -4  -5   7    0.47    0.12
   3   5  -7    0.60    0.10
   3   5  -7    0.54    0.11
   3   5  -7    0.52    0.13
  -3  -5   7    0.44    0.10
  -3  -5   7    0.35    0.08
  -3  -5   7    0.47    0.10
   2   5  -7   29.79    0.78
   2   5  -7   28.63    0.74
   2   5  -7   29.44    0.77
   2   5  -7   29.46    0.81
   2   5  -7   30.30    0.77
   2   5  -7   29.54    0.78
   2   5  -7   29.39    0.93
   2   5  -7   29.63    0.81
   2   5  -7   30.98    0.93
  -2  -5   7   29.82    0.76
  -2  -5   7   29.64    0.78
  -2  -5   7   30.58    0.69
  -2  -5   7   29.55    0.78
  -2  -5   7   30.07    0.76
   1   5  -7    3.43    0.16
   1   5  -7    3.36    0.14
   1   5  -7    3.53    0.15
   1   5  -7    3.43    0.15
   1   5  -7    3.54    0.17
   1   5  -7    3.47    0.12
   1   5  -7    3.47    0.12
  -1  -5   7    3.42    0.10
  -1  -5   7    3.46    0.13
  -1  -5   7    3.37    0.10
  -1  -5   7    3.59    0.15
  -1  -5   7    3.50    0.13
  -1  -5   7    3.47    0.13
   0   5  -7    2.97    0.16
   0   5  -7    3.21    0.14
   0   5  -7    3.03    0.12
   0   5  -7    3.19    0.10
   0   5  -7    3.11    0.13
   0   5  -7    2.96    0.10
   0  -5   7    3.14    0.12
   0  -5   7    2.94    0.11
   0  -5   7    3.08    0.11
   0  -5   7    3.13    0.10
  -1   5  -7    7.27    0.27
  -1   5  -7    7.52    0.24
  -1   5  -7    6.99    0.24
  -1   5  -7    7.38    0.22
  -1   5  -7    7.41    0.23
  -1   5  -7    7.11    0.29
  -1   5  -7    7.44    0.19
   1  -5   7    7.47    0.21
   1  -5   7    7.36    0.22
   1  -5   7    7.36    0.20
   1  -5   7    7.27    0.24
   1  -5   7    7.42    0.20
   1  -5   7    7.25    0.23
   1  -5   7    7.52    0.22
  -2   5  -7   11.18    0.34
  -2   5  -7   11.71    0.37
  -2   5  -7   11.28    0.42
  -2   5  -7   10.82    0.41
  -2   5  -7   10.80    0.36
   2  -5   7   11.02    0.33
   2  -5   7   10.65    0.27
   2  -5   7   10.93    0.30
   2  -5   7   11.12    0.34
   2  -5   7   10.96    0.30
   2  -5   7   11.25    0.34
  -3   5  -7    3.46    0.28
  -3   5  -7    3.88    0.23
  -3   5  -7    3.61    0.22
  -3   5  -7    3.77    0.28
  -3   5  -7    3.55    0.20
   3  -5   7    4.20    0.21
   3  -5   7    3.44    0.18
   3  -5   7    3.71    0.21
   3  -5   7    3.58    0.16
  -4   5  -7    0.48    0.15
  -4   5  -7    0.67    0.14
   4  -5   7    0.50    0.11
   4  -5   7    0.39    0.14
   5   4  -7    0.25    0.15
  -5  -4   7    0.07    0.13
   4   4  -7    2.77    0.21
   4   4  -7    2.72    0.19
   4   4  -7    2.71    0.24
   4   4  -7    2.45    0.21
  -4  -4   7    2.65    0.19
   3   4  -7    6.47    0.26
   3   4  -7    6.67    0.34
   3   4  -7    6.67    0.25
   3   4  -7    6.46    0.26
   3   4  -7    6.30    0.26
   3   4  -7    6.45    0.30
  -3  -4   7    6.69    0.25
  -3  -4   7    6.42    0.26
  -3  -4   7    6.94    0.22
  -3  -4   7    6.65    0.24
   2   4  -7    4.37    0.18
   2   4  -7    4.44    0.21
   2   4  -7    4.49    0.17
   2   4  -7    4.51    0.18
   2   4  -7    4.51    0.17
   2   4  -7    4.39    0.14
   2   4  -7    5.20    0.24
   2   4  -7    4.40    0.18
   2   4  -7    4.39    0.20
  -2  -4   7    4.32    0.16
  -2  -4   7    4.21    0.19
  -2  -4   7    4.54    0.16
  -2  -4   7    4.92    0.17
  -2  -4   7    4.69    0.14
   1   4  -7   19.03    0.52
   1   4  -7   18.72    0.52
   1   4  -7   19.41    0.58
   1   4  -7   20.13    0.48
   1   4  -7   19.45    0.48
   1   4  -7   19.64    0.58
  -1  -4   7   19.20    0.49
  -1  -4   7   19.44    0.48
  -1  -4   7   19.41    0.48
  -1  -4   7   18.95    0.49
  -1  -4   7   19.90    0.52
   0   4  -7   15.76    0.47
   0   4  -7   16.23    0.43
   0   4  -7   16.45    0.43
   0  -4   7   16.49    0.40
   0  -4   7   17.11    0.43
   0  -4   7   15.96    0.40
   0  -4   7   15.51    0.40
  -1   4  -7   11.93    0.36
  -1   4  -7   12.52    0.41
  -1   4  -7   12.35    0.33
  -1   4  -7   12.42    0.33
  -1   4  -7   12.29    0.36
  -1   4  -7   12.40    0.40
   1  -4   7   12.21    0.33
   1  -4   7   11.85    0.30
   1  -4   7   12.24    0.32
   1  -4   7   11.99    0.33
   1  -4   7   12.22    0.30
   1  -4   7   12.11    0.33
   1  -4   7   12.13    0.34
  -2   4  -7    3.82    0.23
  -2   4  -7    3.65    0.17
  -2   4  -7    3.91    0.17
  -2   4  -7    3.69    0.18
  -2   4  -7    3.79    0.15
  -2   4  -7    3.55    0.18
  -2   4  -7    3.94    0.23
   2  -4   7    3.75    0.15
   2  -4   7    4.02    0.13
   2  -4   7    3.90    0.17
   2  -4   7    3.94    0.18
   2  -4   7    3.53    0.17
   2  -4   7    3.80    0.12
   2  -4   7    3.82    0.15
  -3   4  -7    3.45    0.21
  -3   4  -7    2.87    0.19
  -3   4  -7    2.76    0.26
  -3   4  -7    2.74    0.20
  -3   4  -7    2.69    0.25
   3  -4   7    3.00    0.14
   3  -4   7    2.89    0.18
   3  -4   7    2.89    0.16
   3  -4   7    3.10    0.19
  -4   4  -7    2.93    0.22
  -4   4  -7    3.04    0.25
   4  -4   7    3.07    0.17
   4  -4   7    3.22    0.22
   5   3  -7    0.81    0.16
  -5  -3   7    0.69    0.15
   4   3  -7    5.67    0.33
   4   3  -7    6.21    0.26
   4   3  -7    6.12    0.28
   4   3  -7    5.54    0.28
  -4  -3   7    5.85    0.26
   3   3  -7    0.09    0.08
   3   3  -7    0.01    0.08
   3   3  -7    0.19    0.14
   3   3  -7   -0.03    0.08
   3   3  -7    0.03    0.10
   3   3  -7   -0.01    0.06
  -3  -3   7    0.03    0.07
  -3  -3   7    0.04    0.08
  -3  -3   7    0.06    0.07
  -3  -3   7    0.14    0.07
   2   3  -7    1.11    0.09
   2   3  -7    1.06    0.10
   2   3  -7    1.04    0.08
   2   3  -7    1.18    0.09
   2   3  -7    1.11    0.10
   2   3  -7    1.29    0.10
   2   3  -7    1.00    0.07
   2   3  -7    0.95    0.10
  -2  -3   7    1.19    0.08
  -2  -3   7    1.12    0.09
  -2  -3   7    1.21    0.07
  -2  -3   7    1.15    0.09
  -2  -3   7    0.95    0.10
   1   3  -7   28.61    0.73
   1   3  -7   27.55    0.73
  -1  -3   7   28.43    0.72
  -1  -3   7   28.33    0.69
  -1  -3   7   28.43    0.69
   0   3  -7   44.01    1.10
   0   3  -7   42.99    1.10
   0  -3   7   42.70    1.04
   0  -3   7   43.25    1.06
   0  -3   7   42.58    1.04
  -1   3  -7    3.44    0.13
  -1   3  -7    3.46    0.14
  -1   3  -7    3.42    0.14
  -1   3  -7    3.39    0.17
  -1   3  -7    3.34    0.13
   1  -3   7    3.39    0.14
   1  -3   7    3.26    0.13
   1  -3   7    3.34    0.11
   1  -3   7    3.46    0.13
   1  -3   7    3.32    0.13
   1  -3   7    3.45    0.11
  -2   3  -7    4.59    0.18
  -2   3  -7    5.29    0.26
  -2   3  -7    5.06    0.20
  -2   3  -7    5.04    0.21
  -2   3  -7    4.47    0.24
  -2   3  -7    4.94    0.22
  -2   3  -7    5.09    0.20
  -2   3  -7    4.82    0.25
   2  -3   7    5.09    0.19
   2  -3   7    5.02    0.17
   2  -3   7    4.94    0.19
   2  -3   7    4.78    0.19
   2  -3   7    4.92    0.14
   2  -3   7    5.12    0.17
  -3   3  -7   10.04    0.36
  -3   3  -7    9.73    0.42
  -3   3  -7    8.98    0.35
  -3   3  -7    9.97    0.42
  -3   3  -7    9.54    0.33
   3  -3   7    9.32    0.33
   3  -3   7    9.66    0.26
   3  -3   7    9.76    0.30
   3  -3   7    9.53    0.32
  -4   3  -7    3.29    0.23
  -4   3  -7    3.40    0.26
   4  -3   7    3.16    0.22
   4  -3   7    3.51    0.18
   5   2  -7    1.36    0.17
  -5  -2   7    1.31    0.17
   4   2  -7    0.25    0.11
   4   2  -7    0.35    0.12
   4   2  -7    0.02    0.10
   4   2  -7    0.39    0.16
  -4  -2   7    0.16    0.10
   3   2  -7    1.14    0.14
   3   2  -7    1.18    0.13
   3   2  -7    1.00    0.11
   3   2  -7    1.32    0.10
   3   2  -7    1.14    0.11
   3   2  -7    1.10    0.11
   3   2  -7    1.19    0.11
  -3  -2   7    0.98    0.10
  -3  -2   7    1.08    0.09
  -3  -2   7    1.32    0.11
  -3  -2   7    0.99    0.11
  -3  -2   7    1.18    0.10
   2   2  -7   24.33    0.64
   2   2  -7   24.41    0.59
   2   2  -7   23.55    0.65
   2   2  -7   24.24    0.74
   2   2  -7   23.93    0.62
   2   2  -7   25.05    0.62
   2   2  -7   24.37    0.66
   2   2  -7   23.93    0.74
  -2  -2   7   24.31    0.62
  -2  -2   7   22.74    0.64
  -2  -2   7   23.72    0.61
  -2  -2   7   24.59    0.61
  -2  -2   7   23.34    0.55
   1   2  -7   31.15    0.81
   1   2  -7   31.67    0.81
  -1  -2   7   31.23    0.76
  -1  -2   7   30.76    0.76
  -1  -2   7   31.43    0.79
   0   2  -7    0.56    0.05
   0   2  -7    0.51    0.04
   0  -2   7    0.55    0.05
   0  -2   7    0.59    0.05
   0  -2   7    0.52    0.06
   0  -2   7    0.56    0.04
  -1   2  -7   22.63    0.64
  -1   2  -7   23.93    0.61
  -1   2  -7   26.40    0.73
  -1   2  -7   23.09    0.73
  -1   2  -7   23.97    0.59
  -1   2  -7   23.70    0.61
  -1   2  -7   23.33    0.64
   1  -2   7   23.03    0.60
   1  -2   7   23.44    0.54
   1  -2   7   23.24    0.54
   1  -2   7   23.80    0.60
   1  -2   7   23.28    0.58
   1  -2   7   23.44    0.61
  -2   2  -7   16.23    0.56
  -2   2  -7   16.69    0.49
  -2   2  -7   15.82    0.46
  -2   2  -7   16.10    0.44
  -2   2  -7   15.98    0.49
  -2   2  -7   16.05    0.45
   2  -2   7   16.21    0.43
   2  -2   7   15.54    0.41
   2  -2   7   15.99    0.45
   2  -2   7   16.61    0.44
   2  -2   7   15.87    0.45
   2  -2   7   16.29    0.37
  -3   2  -7    2.33    0.17
  -3   2  -7    2.43    0.23
  -3   2  -7    2.56    0.19
  -3   2  -7    2.68    0.20
  -3   2  -7    2.41    0.22
   3  -2   7    2.27    0.15
   3  -2   7    2.40    0.18
   3  -2   7    2.62    0.14
   3  -2   7    2.27    0.16
  -4   2  -7    0.94    0.17
  -4   2  -7    1.03    0.16
   4  -2   7    0.96    0.16
   4  -2   7    1.09    0.12
   5   1  -7    0.23    0.14
  -5  -1   7    0.36    0.14
   4   1  -7    5.33    0.26
   4   1  -7    5.27    0.30
   4   1  -7    4.97    0.23
   4   1  -7    5.32    0.25
  -4  -1   7    5.00    0.24
  -4  -1   7    4.86    0.23
   3   1  -7    7.63    0.24
   3   1  -7    7.30    0.25
   3   1  -7    7.09    0.27
   3   1  -7    7.36    0.32
   3   1  -7    7.55    0.32
   3   1  -7    7.33    0.27
   3   1  -7    7.88    0.26
  -3  -1   7    7.55    0.25
  -3  -1   7    7.26    0.25
  -3  -1   7    7.31    0.23
  -3  -1   7    7.45    0.25
  -3  -1   7    7.40    0.27
   2   1  -7    3.09    0.16
   2   1  -7    2.95    0.14
   2   1  -7    3.32    0.13
   2   1  -7    2.97    0.17
   2   1  -7    2.94    0.14
   2   1  -7    3.28    0.13
  -2  -1   7    3.08    0.16
  -2  -1   7    3.20    0.13
  -2  -1   7    3.06    0.11
  -2  -1   7    3.11    0.13
  -2  -1   7    3.03    0.13
  -2  -1   7    3.04    0.12
   1   1  -7   22.09    0.56
   1   1  -7   21.53    0.62
   1   1  -7   20.78    0.56
   1   1  -7   20.97    0.52
   1   1  -7   21.38    0.52
   1   1  -7   21.05    0.62
  -1  -1   7   21.12    0.53
  -1  -1   7   20.89    0.52
  -1  -1   7   21.21    0.52
  -1  -1   7   20.38    0.54
  -1  -1   7   20.91    0.56
   0   1  -7   35.06    1.02
   0   1  -7   34.70    0.86
   0   1  -7   35.24    1.02
   0   1  -7   35.56    0.91
   0   1  -7   34.41    0.91
   0   1  -7   35.10    0.86
   0  -1   7   34.26    0.87
   0  -1   7   34.34    0.85
   0  -1   7   35.44    0.85
   0  -1   7   34.86    0.86
   0  -1   7   35.23    0.81
  -1   1  -7   32.94    0.88
  -1   1  -7   32.95    0.84
  -1   1  -7   33.23    0.88
  -1   1  -7   33.15    0.84
  -1   1  -7   32.60    1.00
  -1   1  -7   33.05    1.00
   1  -1   7   31.96    0.83
   1  -1   7   32.26    0.84
   1  -1   7   33.28    0.78
   1  -1   7   33.81    0.83
   1  -1   7   33.08    0.76
  -2   1  -7    2.48    0.19
  -2   1  -7    2.57    0.14
  -2   1  -7    2.73    0.16
  -2   1  -7    2.60    0.15
  -2   1  -7    2.65    0.14
  -2   1  -7    2.30    0.15
  -2   1  -7    2.69    0.16
   2  -1   7    2.46    0.11
   2  -1   7    2.62    0.14
   2  -1   7    2.55    0.14
   2  -1   7    2.56    0.15
   2  -1   7    2.41    0.15
   2  -1   7    2.55    0.13
  -3   1  -7    7.94    0.29
  -3   1  -7    8.42    0.33
  -3   1  -7    8.91    0.40
  -3   1  -7    8.48    0.40
  -3   1  -7    8.05    0.30
  -3   1  -7    8.48    0.33
   3  -1   7    7.98    0.24
   3  -1   7    8.27    0.31
   3  -1   7    8.34    0.28
   3  -1   7    8.18    0.28
  -4   1  -7    5.86    0.30
   4  -1   7    6.54    0.31
   4  -1   7    7.04    0.24
   5   0  -7    5.21    0.27
  -5   0   7    5.71    0.28
   4   0  -7    4.84    0.29
   4   0  -7    5.05    0.25
   4   0  -7    5.05    0.23
   4   0  -7    4.71    0.23
   4   0  -7    5.29    0.25
  -4   0   7    5.09    0.21
  -4   0   7    5.07    0.24
  -4   0   7    4.76    0.23
  -4   0   7    4.65    0.23
   3   0  -7    0.33    0.11
   3   0  -7    0.21    0.10
   3   0  -7    0.47    0.08
   3   0  -7    0.45    0.09
   3   0  -7    0.52    0.08
   3   0  -7    0.33    0.09
   3   0  -7    0.31    0.09
  -3   0   7    0.23    0.08
  -3   0   7    0.27    0.08
  -3   0   7    0.27    0.09
  -3   0   7    0.43    0.08
  -3   0   7    0.33    0.08
   2   0  -7   15.57    0.42
   2   0  -7   15.15    0.44
   2   0  -7   16.00    0.45
   2   0  -7   15.69    0.50
   2   0  -7   15.73    0.51
   2   0  -7   15.41    0.40
  -2   0   7   15.39    0.42
  -2   0   7   15.41    0.44
  -2   0   7   15.67    0.39
  -2   0   7   15.23    0.42
  -2   0   7   15.52    0.42
  -2   0   7   15.52    0.38
   1   0  -7   35.75    1.08
   1   0  -7   37.16    0.92
   1   0  -7   37.18    0.91
   1   0  -7   37.04    1.09
   1   0  -7   36.41    0.96
   1   0  -7   36.79    0.96
  -1   0   7   35.98    0.93
  -1   0   7   36.11    0.90
  -1   0   7   37.82    0.84
  -1   0   7   36.52    0.91
  -1   0   7   36.55    0.90
  -1   0   7   36.72    0.93
  -1   0   7   36.02    0.90
   0   0  -7   28.73    0.86
   0   0  -7   29.61    0.73
   0   0  -7   29.65    0.77
   0   0  -7   29.75    0.87
   0   0  -7   29.22    0.72
   0   0  -7   28.66    0.77
   0   0   7   26.96    0.74
   0   0   7   28.74    0.64
   0   0   7   29.28    0.72
   0   0   7   28.49    0.72
  -1   0  -7    0.92    0.08
  -1   0  -7    0.91    0.09
  -1   0  -7    1.07    0.11
  -1   0  -7    0.87    0.09
  -1   0  -7    1.02    0.09
  -1   0  -7    0.87    0.10
   1   0   7    0.91    0.08
   1   0   7    1.03    0.08
   1   0   7    1.19    0.08
   1   0   7    1.10    0.08
  -2   0  -7   19.53    0.49
  -2   0  -7   19.69    0.57
  -2   0  -7   18.74    0.53
  -2   0  -7   18.91    0.52
  -2   0  -7   19.11    0.57
  -2   0  -7   18.04    0.53
  -2   0  -7   19.01    0.64
   2   0   7   18.09    0.53
   2   0   7   18.82    0.54
   2   0   7   19.34    0.53
   2   0   7   19.27    0.43
   2   0   7   18.35    0.48
  -3   0  -7    0.59    0.13
  -3   0  -7    0.07    0.22
  -3   0  -7    0.66    0.12
  -3   0  -7    0.72    0.11
   3   0   7    0.72    0.12
   3   0   7    0.84    0.11
   3   0   7    0.60    0.09
   3   0   7    0.53    0.12
   3   0   7    0.73    0.12
  -4   0  -7    0.50    0.14
   4   0   7    0.74    0.16
   4   0   7    0.77    0.11
   5  -1  -7    2.74    0.22
  -5   1   7    2.83    0.22
   4  -1  -7    1.31    0.13
   4  -1  -7    0.84    0.17
   4  -1  -7    1.04    0.13
   4  -1  -7    1.33    0.15
   4  -1  -7    1.25    0.15
  -4   1   7    1.32    0.14
  -4   1   7    1.37    0.14
  -4   1   7    1.05    0.13
  -4   1   7    1.20    0.12
   3  -1  -7    1.54    0.12
   3  -1  -7    1.14    0.11
   3  -1  -7    1.21    0.12
   3  -1  -7    1.32    0.15
   3  -1  -7    1.34    0.14
   3  -1  -7    1.35    0.11
   3  -1  -7    1.36    0.13
  -3   1   7    1.24    0.11
  -3   1   7    1.27    0.12
  -3   1   7    1.22    0.10
  -3   1   7    1.36    0.10
  -3   1   7    1.44    0.10
  -3   1   7    1.42    0.12
   2  -1  -7   14.44    0.40
   2  -1  -7   13.68    0.47
   2  -1  -7   13.78    0.47
   2  -1  -7   14.07    0.39
   2  -1  -7   14.13    0.38
   2  -1  -7   14.04    0.42
   2  -1  -7   14.15    0.42
  -2   1   7   14.27    0.39
  -2   1   7   13.99    0.36
  -2   1   7   14.25    0.39
  -2   1   7   14.47    0.35
  -2   1   7   14.01    0.30
  -2   1   7   14.04    0.35
  -2   1   7   14.28    0.30
  -2   1   7   14.09    0.41
  -2   1   7   13.66    0.39
   1  -1  -7   14.00    0.40
   1  -1  -7   13.97    0.41
   1  -1  -7   14.02    0.46
   1  -1  -7   15.61    0.45
   1  -1  -7   13.46    0.39
   1  -1  -7   13.84    0.37
  -1   1   7   13.59    0.33
  -1   1   7   13.72    0.33
  -1   1   7   13.50    0.37
  -1   1   7   13.97    0.38
  -1   1   7   13.82    0.37
   0  -1  -7   15.91    0.50
   0  -1  -7   15.33    0.43
   0  -1  -7   15.91    0.42
   0  -1  -7   15.55    0.52
   0  -1  -7   15.59    0.45
   0  -1  -7   16.09    0.45
   0   1   7   15.08    0.42
   0   1   7   14.93    0.43
   0   1   7   15.98    0.42
   0   1   7   15.55    0.37
  -1  -1  -7   22.25    0.58
  -1  -1  -7   21.97    0.70
  -1  -1  -7   21.73    0.62
  -1  -1  -7   22.49    0.72
  -1  -1  -7   21.56    0.59
  -1  -1  -7   22.16    0.53
  -1  -1  -7   22.40    0.62
  -1  -1  -7   21.22    0.60
   1   1   7   20.78    0.54
   1   1   7   21.84    0.58
   1   1   7   22.35    0.47
   1   1   7   22.07    0.59
   1   1   7   21.85    0.59
   1   1   7   22.12    0.47
  -2  -1  -7   14.72    0.44
  -2  -1  -7   14.41    0.46
  -2  -1  -7   14.88    0.40
  -2  -1  -7   14.64    0.53
  -2  -1  -7   14.96    0.43
  -2  -1  -7   15.09    0.47
   2   1   7   14.89    0.46
   2   1   7   14.43    0.44
   2   1   7   14.96    0.35
   2   1   7   14.16    0.43
   2   1   7   14.52    0.40
  -3  -1  -7   -0.28    0.19
  -3  -1  -7   -0.12    0.10
  -3  -1  -7    0.04    0.09
  -3  -1  -7    0.00    0.10
   3   1   7    0.07    0.08
   3   1   7    0.09    0.10
   3   1   7    0.11    0.09
  -4  -1  -7    0.65    0.15
   4   1   7    0.67    0.11
   4   1   7    0.71    0.15
   5  -2  -7    1.93    0.19
  -5   2   7    1.87    0.19
   4  -2  -7    2.81    0.19
   4  -2  -7    2.99    0.18
   4  -2  -7    2.90    0.21
   4  -2  -7    3.27    0.27
  -4   2   7    2.70    0.16
  -4   2   7    2.88    0.20
  -4   2   7    2.59    0.19
  -4   2   7    3.19    0.20
   3  -2  -7    6.54    0.24
   3  -2  -7    6.35    0.30
   3  -2  -7    6.79    0.25
   3  -2  -7    6.53    0.25
   3  -2  -7    6.90    0.27
   3  -2  -7    6.61    0.31
   3  -2  -7    6.36    0.26
  -3   2   7    6.44    0.25
  -3   2   7    7.01    0.22
  -3   2   7    6.15    0.24
  -3   2   7    6.60    0.22
  -3   2   7    6.47    0.21
  -3   2   7    6.71    0.25
   2  -2  -7    0.44    0.07
   2  -2  -7    0.41    0.08
   2  -2  -7    0.41    0.11
   2  -2  -7    0.43    0.07
   2  -2  -7    0.36    0.10
   2  -2  -7    0.50    0.07
   2  -2  -7    0.44    0.08
  -2   2   7    0.43    0.08
  -2   2   7    0.37    0.05
  -2   2   7    0.50    0.06
  -2   2   7    0.32    0.08
  -2   2   7    0.52    0.07
  -2   2   7    0.37    0.04
  -2   2   7    0.53    0.07
  -2   2   7    0.43    0.04
   1  -2  -7   11.92    0.39
   1  -2  -7   14.08    0.42
   1  -2  -7   14.24    0.47
   1  -2  -7   14.28    0.46
   1  -2  -7   13.79    0.36
   1  -2  -7   14.78    0.43
   1  -2  -7   13.81    0.38
  -1   2   7   14.31    0.40
  -1   2   7   13.60    0.38
  -1   2   7   13.57    0.38
  -1   2   7   13.72    0.34
  -1   2   7   13.86    0.34
   0  -2  -7   23.44    0.74
   0  -2  -7   22.38    0.62
   0  -2  -7   22.85    0.65
   0  -2  -7   22.65    0.58
   0  -2  -7   22.64    0.60
   0  -2  -7   22.06    0.71
   0  -2  -7   23.17    0.64
   0   2   7   22.30    0.60
   0   2   7   22.80    0.48
   0   2   7   22.82    0.48
   0   2   7   22.98    0.62
   0   2   7   22.74    0.60
   0   2   7   22.39    0.54
  -1  -2  -7   26.58    0.76
  -1  -2  -7   26.08    0.73
  -1  -2  -7   27.85    0.72
  -1  -2  -7   27.24    0.89
  -1  -2  -7   27.44    0.76
  -1  -2  -7   26.44    0.64
  -1  -2  -7   27.32    0.86
  -1  -2  -7   27.61    0.76
  -1  -2  -7   27.30    0.73
   1   2   7   26.38    0.71
   1   2   7   27.15    0.73
   1   2   7   27.18    0.59
  -2  -2  -7    0.56    0.10
  -2  -2  -7    0.43    0.10
  -2  -2  -7    0.41    0.13
  -2  -2  -7    0.37    0.10
  -2  -2  -7    0.43    0.09
  -2  -2  -7    0.57    0.13
  -2  -2  -7    0.50    0.09
   2   2   7    0.60    0.10
   2   2   7    0.54    0.07
   2   2   7    0.33    0.11
   2   2   7    0.45    0.10
   2   2   7    0.59    0.10
  -3  -2  -7    2.60    0.19
  -3  -2  -7    2.11    0.19
  -3  -2  -7    2.45    0.19
   3   2   7    2.51    0.18
   3   2   7    2.23    0.18
   3   2   7    2.15    0.14
  -4  -2  -7    5.74    0.30
   4   2   7    5.84    0.23
   4   2   7    6.35    0.31
   5  -3  -7    1.37    0.18
  -5   3   7    1.56    0.19
   4  -3  -7    8.36    0.32
   4  -3  -7    8.48    0.35
   4  -3  -7    7.92    0.41
   4  -3  -7    9.02    0.31
  -4   3   7    7.80    0.32
  -4   3   7    8.12    0.32
  -4   3   7    8.21    0.28
  -4   3   7    7.93    0.32
   3  -3  -7    0.14    0.09
   3  -3  -7    0.14    0.08
   3  -3  -7    0.08    0.10
   3  -3  -7    0.13    0.09
   3  -3  -7    0.24    0.10
   3  -3  -7   -0.02    0.13
  -3   3   7    0.13    0.07
  -3   3   7    0.24    0.09
  -3   3   7    0.14    0.09
  -3   3   7    0.23    0.09
  -3   3   7    0.14    0.08
  -3   3   7    0.04    0.08
   2  -3  -7    9.48    0.28
   2  -3  -7    9.27    0.31
   2  -3  -7    8.60    0.31
   2  -3  -7    8.93    0.29
   2  -3  -7    9.48    0.38
   2  -3  -7    9.12    0.36
   2  -3  -7    9.41    0.30
  -2   3   7    9.37    0.29
  -2   3   7    8.81    0.25
  -2   3   7    9.26    0.29
  -2   3   7    9.00    0.30
  -2   3   7    9.11    0.27
   1  -3  -7   38.66    1.15
   1  -3  -7   37.97    1.16
   1  -3  -7   38.31    1.05
   1  -3  -7   37.81    0.98
   1  -3  -7   37.17    1.03
   1  -3  -7   37.33    0.97
   1  -3  -7   36.69    0.94
  -1   3   7   37.73    0.87
  -1   3   7   37.36    0.79
  -1   3   7   38.27    0.79
  -1   3   7   37.64    0.97
  -1   3   7   34.49    0.97
  -1   3   7   38.10    0.87
   0  -3  -7   29.10    0.84
   0  -3  -7   30.71    0.96
   0  -3  -7   29.65    0.83
   0  -3  -7   29.28    0.80
   0  -3  -7   29.23    0.92
   0  -3  -7   30.14    0.78
   0  -3  -7   29.44    0.76
   0   3   7   28.40    0.77
   0   3   7   29.44    0.70
   0   3   7   29.27    0.63
   0   3   7   30.22    0.80
  -1  -3  -7   37.59    1.01
  -1  -3  -7   36.89    0.96
  -1  -3  -7   35.30    1.01
  -1  -3  -7   36.99    0.86
  -1  -3  -7   35.04    1.18
  -1  -3  -7   35.04    0.98
  -1  -3  -7   37.63    1.14
  -1  -3  -7   39.34    0.97
  -1  -3  -7   36.75    1.01
   1   3   7   37.06    0.79
   1   3   7   36.42    0.97
   1   3   7   37.25    0.95
   1   3   7   32.61    0.88
  -2  -3  -7    3.42    0.23
  -2  -3  -7    3.21    0.16
  -2  -3  -7    3.75    0.12
  -2  -3  -7    3.45    0.25
  -2  -3  -7    3.24    0.21
  -2  -3  -7    3.85    0.22
  -2  -3  -7    3.63    0.20
  -2  -3  -7    3.30    0.22
   2   3   7    3.66    0.21
   2   3   7    3.59    0.20
   2   3   7    3.55    0.21
   2   3   7    3.72    0.15
   2   3   7    3.55    0.19
  -3  -3  -7    1.58    0.16
  -3  -3  -7    1.27    0.15
  -3  -3  -7    1.55    0.18
   3   3   7    1.40    0.12
   3   3   7    1.32    0.15
  -4  -3  -7    0.26    0.15
   4   3   7    0.17    0.13
   4   3   7    0.10    0.10
   5  -4  -7    0.22    0.14
  -5   4   7    0.13    0.14
   4  -4  -7    0.52    0.13
   4  -4  -7    0.35    0.18
   4  -4  -7    0.52    0.13
   4  -4  -7    0.32    0.14
  -4   4   7    0.60    0.13
  -4   4   7    0.49    0.13
  -4   4   7    0.55    0.11
  -4   4   7    0.48    0.12
   3  -4  -7    3.45    0.26
   3  -4  -7    4.24    0.22
   3  -4  -7    3.83    0.19
   3  -4  -7    4.19    0.26
   3  -4  -7    4.18    0.22
   3  -4  -7    4.06    0.20
   3  -4  -7    4.08    0.13
  -3   4   7    4.19    0.21
  -3   4   7    3.96    0.20
  -3   4   7    3.63    0.18
  -3   4   7    4.07    0.17
  -3   4   7    3.79    0.19
   2  -4  -7   13.24    0.49
   2  -4  -7   13.02    0.51
   2  -4  -7   13.86    0.41
   2  -4  -7   14.06    0.44
   2  -4  -7   14.27    0.42
   2  -4  -7   13.37    0.43
   2  -4  -7   13.68    0.39
  -2   4   7   13.10    0.38
  -2   4   7   13.58    0.41
  -2   4   7   13.75    0.36
  -2   4   7   13.59    0.41
   1  -4  -7    1.56    0.12
   1  -4  -7    1.22    0.15
   1  -4  -7    1.83    0.16
   1  -4  -7    1.36    0.15
   1  -4  -7    1.54    0.12
   1  -4  -7    1.35    0.14
   1  -4  -7    1.85    0.13
  -1   4   7    1.25    0.13
  -1   4   7    1.59    0.11
  -1   4   7    1.69    0.13
  -1   4   7    1.57    0.10
  -1   4   7    1.68    0.09
  -1   4   7    1.68    0.14
   0  -4  -7   13.06    0.50
   0  -4  -7   13.42    0.39
   0  -4  -7   13.20    0.48
   0  -4  -7   13.04    0.44
   0  -4  -7   13.26    0.42
   0  -4  -7   13.23    0.32
   0  -4  -7   13.75    0.40
   0  -4  -7   12.98    0.44
   0   4   7   13.45    0.35
   0   4   7   12.87    0.36
   0   4   7   12.81    0.41
   0   4   7   13.24    0.31
   0   4   7   14.06    0.42
   0   4   7   13.00    0.42
  -1  -4  -7   42.87    1.18
  -1  -4  -7   45.90    1.15
  -1  -4  -7   44.91    1.15
  -1  -4  -7   38.03    1.39
  -1  -4  -7   42.07    1.21
  -1  -4  -7   45.76    1.36
  -1  -4  -7   44.46    1.03
  -1  -4  -7   45.65    1.21
   1   4   7   43.66    1.13
   1   4   7   43.51    1.16
   1   4   7   43.66    1.06
   1   4   7   44.49    0.95
  -2  -4  -7    1.73    0.12
  -2  -4  -7    1.10    0.19
  -2  -4  -7    1.07    0.14
  -2  -4  -7    1.42    0.09
  -2  -4  -7    1.32    0.15
  -2  -4  -7    1.70    0.17
   2   4   7    1.34    0.10
   2   4   7    1.39    0.15
   2   4   7    1.45    0.14
   2   4   7    1.78    0.16
   2   4   7    1.57    0.15
  -3  -4  -7    0.24    0.12
  -3  -4  -7    0.14    0.12
   3   4   7    0.02    0.09
   3   4   7    0.19    0.12
   5  -5  -7    1.67    0.20
  -5   5   7    1.83    0.20
   4  -5  -7    3.95    0.24
   4  -5  -7    4.32    0.26
   4  -5  -7    4.28    0.25
  -4   5   7    3.97    0.24
  -4   5   7    4.32    0.24
   3  -5  -7    4.14    0.26
   3  -5  -7    3.95    0.15
   3  -5  -7    4.32    0.21
   3  -5  -7    3.81    0.21
   3  -5  -7    4.38    0.24
   3  -5  -7    4.19    0.17
   3  -5  -7    3.83    0.22
  -3   5   7    4.22    0.22
  -3   5   7    3.85    0.21
  -3   5   7    3.71    0.18
  -3   5   7    3.91    0.22
   2  -5  -7    0.48    0.10
   2  -5  -7    0.56    0.11
   2  -5  -7    0.57    0.14
   2  -5  -7    0.63    0.14
   2  -5  -7    0.39    0.09
   2  -5  -7    0.48    0.11
   2  -5  -7    0.42    0.06
   2  -5  -7    0.39    0.11
  -2   5   7    0.43    0.10
  -2   5   7    0.62    0.10
  -2   5   7    0.52    0.08
  -2   5   7    0.45    0.09
  -2   5   7    0.49    0.11
   1  -5  -7   14.31    0.41
   1  -5  -7   13.41    0.33
   1  -5  -7   14.01    0.44
   1  -5  -7   14.23    0.52
   1  -5  -7   13.81    0.50
   1  -5  -7   14.50    0.44
   1  -5  -7   13.53    0.52
  -1   5   7   13.51    0.38
  -1   5   7   14.20    0.33
  -1   5   7   14.20    0.38
  -1   5   7   13.85    0.45
  -1   5   7   14.05    0.44
  -1   5   7   12.35    0.44
   0  -5  -7   19.06    0.55
   0  -5  -7   17.88    0.63
   0  -5  -7   17.57    0.57
   0  -5  -7   18.30    0.43
   0  -5  -7   18.56    0.54
   0  -5  -7   18.27    0.52
   0  -5  -7   18.60    0.58
   0  -5  -7   18.24    0.65
   0   5   7   17.98    0.48
   0   5   7   17.53    0.56
   0   5   7   19.14    0.55
   0   5   7   17.74    0.53
   0   5   7   18.35    0.42
   0   5   7   18.06    0.47
  -1  -5  -7    0.24    0.12
  -1  -5  -7    0.35    0.07
  -1  -5  -7    0.31    0.16
  -1  -5  -7    0.46    0.11
  -1  -5  -7    0.24    0.10
  -1  -5  -7    0.25    0.10
  -1  -5  -7    0.29    0.12
   1   5   7    0.44    0.11
   1   5   7    0.24    0.10
   1   5   7    0.26    0.07
   1   5   7    0.43    0.09
   1   5   7    0.42    0.11
  -2  -5  -7    2.88    0.21
  -2  -5  -7    3.27    0.25
  -2  -5  -7    2.52    0.26
  -2  -5  -7    3.28    0.23
   2   5   7    3.33    0.21
   2   5   7    2.80    0.22
   2   5   7    2.48    0.19
   2   5   7    2.79    0.15
  -3  -5  -7    2.11    0.20
   3   5   7    2.52    0.16
   3   5   7    1.95    0.18
   4  -6  -7    1.63    0.17
   4  -6  -7    1.13    0.16
  -4   6   7    1.51    0.17
   3  -6  -7    0.03    0.10
   3  -6  -7    0.03    0.15
   3  -6  -7   -0.06    0.07
   3  -6  -7   -0.07    0.11
   3  -6  -7    0.01    0.07
   3  -6  -7    0.11    0.10
  -3   6   7   -0.05    0.10
  -3   6   7    0.14    0.09
  -3   6   7    0.10    0.11
  -3   6   7   -0.09    0.10
   2  -6  -7    4.80    0.23
   2  -6  -7    4.94    0.22
   2  -6  -7    4.84    0.17
   2  -6  -7    4.57    0.32
   2  -6  -7    5.26    0.30
   2  -6  -7    4.79    0.26
   2  -6  -7    5.23    0.26
  -2   6   7    5.62    0.25
  -2   6   7    4.97    0.26
  -2   6   7    5.07    0.22
  -2   6   7    5.20    0.21
   1  -6  -7   15.14    0.48
   1  -6  -7   15.29    0.38
   1  -6  -7   16.60    0.55
   1  -6  -7   15.60    0.46
   1  -6  -7   13.88    0.52
   1  -6  -7   14.92    0.57
   1  -6  -7   16.37    0.58
  -1   6   7   15.31    0.37
  -1   6   7   14.78    0.50
  -1   6   7   15.92    0.43
  -1   6   7   15.86    0.42
  -1   6   7   15.36    0.50
  -1   6   7   14.47    0.50
   0  -6  -7    0.21    0.11
   0  -6  -7    0.14    0.10
   0  -6  -7    0.22    0.15
   0  -6  -7    0.27    0.10
   0  -6  -7    0.38    0.10
   0  -6  -7    0.26    0.12
   0   6   7    0.33    0.11
   0   6   7    0.19    0.10
   0   6   7    0.27    0.07
   0   6   7    0.24    0.09
   0   6   7    0.10    0.08
  -1  -6  -7    4.42    0.25
  -1  -6  -7    4.35    0.26
  -1  -6  -7    5.10    0.24
  -1  -6  -7    4.89    0.34
   1   6   7    4.59    0.27
   1   6   7    4.48    0.22
   1   6   7    4.39    0.17
   1   6   7    4.18    0.24
  -2  -6  -7    1.91    0.21
  -2  -6  -7    1.62    0.19
  -2  -6  -7    1.87    0.19
   2   6   7    1.63    0.12
   2   6   7    1.56    0.17
   2   6   7    2.04    0.20
  -3  -6  -7    1.67    0.20
   3   6   7    1.34    0.18
   3   6   7    1.90    0.14
   4  -7  -7    1.10    0.17
   4  -7  -7    1.27    0.17
  -4   7   7    1.07    0.18
   3  -7  -7    2.22    0.21
   3  -7  -7    2.54    0.19
   3  -7  -7    2.55    0.20
  -3   7   7    2.40    0.21
  -3   7   7    2.33    0.19
  -3   7   7    2.27    0.19
  -3   7   7    2.19    0.16
   2  -7  -7    5.67    0.27
   2  -7  -7    5.20    0.29
   2  -7  -7    5.85    0.25
   2  -7  -7    5.61    0.19
   2  -7  -7    5.28    0.33
  -2   7   7    5.25    0.22
  -2   7   7    4.96    0.27
  -2   7   7    5.37    0.27
   1  -7  -7    1.24    0.16
   1  -7  -7    1.12    0.16
   1  -7  -7    1.08    0.15
   1  -7  -7    1.04    0.08
   1  -7  -7    1.28    0.19
   1  -7  -7    1.16    0.14
  -1   7   7    1.02    0.16
  -1   7   7    1.45    0.17
  -1   7   7    1.18    0.12
   0  -7  -7    8.40    0.42
   0  -7  -7    8.84    0.34
   0  -7  -7    8.96    0.36
   0  -7  -7    8.55    0.32
   0   7   7    8.40    0.25
   0   7   7    8.27    0.29
   0   7   7    8.39    0.32
   0   7   7    8.64    0.34
  -1  -7  -7   15.36    0.54
  -1  -7  -7   17.44    0.53
  -1  -7  -7   16.38    0.58
   1   7   7   16.09    0.41
   1   7   7   15.89    0.53
   1   7   7   16.69    0.49
   1   7   7   17.26    0.55
  -2  -7  -7    0.82    0.18
  -2  -7  -7    0.95    0.18
   2   7   7    0.98    0.16
   2   7   7    0.86    0.17
   2   7   7    0.65    0.10
   4  -8  -7    2.83    0.24
   4  -8  -7    3.29    0.24
  -4   8   7    2.95    0.25
   3  -8  -7    3.14    0.24
   3  -8  -7    3.15    0.23
  -3   8   7    3.41    0.26
  -3   8   7    2.86    0.23
   2  -8  -7    0.02    0.12
   2  -8  -7   -0.02    0.13
   2  -8  -7   -0.06    0.13
  -2   8   7   -0.28    0.14
  -2   8   7   -0.05    0.12
  -2   8   7    0.12    0.10
   1  -8  -7   15.15    0.62
   1  -8  -7   14.59    0.51
   1  -8  -7   15.81    0.49
   1  -8  -7   16.25    0.56
  -1   8   7   14.89    0.52
  -1   8   7   15.51    0.51
  -1   8   7   13.78    0.44
   0  -8  -7    2.55    0.21
   0  -8  -7    2.66    0.21
   0  -8  -7    2.71    0.21
   0   8   7    2.39    0.19
   0   8   7    2.31    0.15
   0   8   7    2.64    0.18
   0   8   7    2.62    0.21
  -1  -8  -7    0.37    0.14
  -1  -8  -7    0.41    0.13
   1   8   7    0.35    0.13
   1   8   7    0.37    0.13
   1   8   7    0.35    0.09
  -2  -8  -7    0.62    0.17
  -2  -8  -7    0.31    0.17
   2   8   7    0.30    0.11
   2   8   7    0.55    0.15
   4  -9  -7    2.18    0.23
  -4   9   7    1.86    0.24
   3  -9  -7    6.80    0.33
   3  -9  -7    6.24    0.34
  -3   9   7    6.56    0.36
  -3   9   7    6.29    0.36
   2  -9  -7    2.46    0.23
   2  -9  -7    2.77    0.22
  -2   9   7    2.66    0.25
  -2   9   7    2.50    0.24
   1  -9  -7    1.31    0.17
   1  -9  -7    1.54    0.18
  -1   9   7    1.51    0.19
  -1   9   7    1.39    0.18
   0  -9  -7    0.89    0.15
   0  -9  -7    0.75    0.15
   0   9   7    0.82    0.15
   0   9   7    0.99    0.16
  -1  -9  -7    1.07    0.16
  -1  -9  -7    0.81    0.15
   1   9   7    0.96    0.17
   1   9   7    0.81    0.16
   1   9   7    0.84    0.11
  -2  -9  -7    1.88    0.23
   2   9   7    2.02    0.22
   2   9   7    1.67    0.15
   3 -10  -7    1.77    0.23
   3 -10  -7    1.82    0.22
  -3  10   7    1.36    0.23
   2 -10  -7    0.45    0.16
   2 -10  -7    0.14    0.15
  -2  10   7    0.32    0.17
  -2  10   7    0.09    0.17
   1 -10  -7   -0.16    0.13
   1 -10  -7    0.04    0.14
  -1  10   7    0.18    0.14
  -1  10   7    0.09    0.15
   0 -10  -7    3.55    0.24
   0 -10  -7    3.90    0.26
   0  10   7    3.68    0.26
   0  10   7    4.21    0.27
  -1 -10  -7    2.54    0.22
  -1 -10  -7    2.02    0.21
   1  10   7    1.93    0.21
   2 -11  -7    0.95    0.19
   2 -11  -7    1.33    0.21
  -2  11   7    0.67    0.19
   1 -11  -7    3.77    0.27
   1 -11  -7    3.29    0.25
  -1  11   7    2.74    0.24
   0 -11  -7    2.46    0.22
   0 -11  -7    1.62    0.19
   0  11   7    1.38    0.20
   0  13  -8    0.01    0.11
   0  13  -8    0.08    0.14
   0  13  -8    0.02    0.18
   0 -13   8    0.03    0.09
   0 -13   8    0.05    0.13
   2  12  -8    0.20    0.15
   2  12  -8    0.28    0.13
   2  12  -8    0.45    0.23
  -2 -12   8    0.34    0.16
   1  12  -8    1.77    0.18
   1  12  -8    1.65    0.23
   1  12  -8    1.78    0.16
  -1 -12   8    1.26    0.16
   0  12  -8    2.33    0.24
   0  12  -8    2.21    0.18
   0  12  -8    1.82    0.18
   0 -12   8    2.21    0.14
   0 -12   8    2.29    0.18
  -1  12  -8    0.06    0.11
  -1  12  -8    0.02    0.17
  -1  12  -8    0.13    0.13
   1 -12   8   -0.02    0.08
   1 -12   8    0.03    0.12
   2  11  -8    1.36    0.25
   2  11  -8    1.27    0.18
   2  11  -8    1.35    0.15
  -2 -11   8    1.10    0.18
   1  11  -8    8.89    0.36
   1  11  -8    9.16    0.32
   1  11  -8    9.87    0.45
   1  11  -8    9.57    0.38
   1  11  -8    9.86    0.45
  -1 -11   8    8.90    0.34
   0  11  -8    0.19    0.12
   0  11  -8    0.40    0.18
   0  11  -8    0.32    0.12
   0  11  -8    0.19    0.16
   0  11  -8    0.55    0.11
   0 -11   8    0.26    0.11
  -1  11  -8    1.38    0.17
  -1  11  -8    1.59    0.16
  -1  11  -8    1.42    0.13
  -1  11  -8    1.26    0.19
   1 -11   8    1.10    0.14
   1 -11   8    1.29    0.10
  -2  11  -8    3.60    0.31
  -2  11  -8    3.18    0.23
  -2  11  -8    3.41    0.21
   2 -11   8    3.80    0.20
   2 -11   8    3.46    0.23
   3  10  -8    1.46    0.18
   3  10  -8    1.48    0.21
   3  10  -8    1.34    0.25
  -3 -10   8    1.37    0.18
   2  10  -8    2.55    0.28
   2  10  -8    2.74    0.27
   2  10  -8    3.11    0.26
   2  10  -8    3.03    0.20
   2  10  -8    3.02    0.22
  -2 -10   8    2.99    0.20
  -2 -10   8    2.77    0.23
   1  10  -8    0.68    0.12
   1  10  -8    0.35    0.12
   1  10  -8    0.34    0.17
   1  10  -8    0.50    0.10
   1  10  -8    0.71    0.17
  -1 -10   8    0.63    0.12
   0  10  -8    1.17    0.17
   0  10  -8    1.12    0.14
   0  10  -8    1.47    0.20
   0  10  -8    1.02    0.13
   0  10  -8    1.24    0.11
   0 -10   8    1.22    0.13
  -1  10  -8    7.35    0.36
  -1  10  -8    6.89    0.28
  -1  10  -8    6.31    0.25
  -1  10  -8    6.66    0.30
  -1  10  -8    6.90    0.34
   1 -10   8    6.82    0.20
   1 -10   8    7.00    0.27
   1 -10   8    6.37    0.29
  -2  10  -8    5.83    0.28
  -2  10  -8    5.78    0.33
  -2  10  -8    5.42    0.24
   2 -10   8    5.80    0.26
   2 -10   8    5.43    0.23
  -3  10  -8    0.11    0.18
  -3  10  -8    0.00    0.12
  -3  10  -8    0.11    0.14
   3 -10   8    0.03    0.11
   3 -10   8   -0.09    0.13
   3   9  -8    1.56    0.17
   3   9  -8    1.84    0.24
   3   9  -8    1.52    0.18
  -3  -9   8    1.60    0.17
   2   9  -8    0.11    0.13
   2   9  -8    0.12    0.10
   2   9  -8    0.01    0.10
   2   9  -8    0.19    0.13
   2   9  -8    0.01    0.15
  -2  -9   8   -0.02    0.10
  -2  -9   8   -0.01    0.11
   1   9  -8   10.70    0.38
   1   9  -8   10.67    0.44
   1   9  -8   10.27    0.37
   1   9  -8   11.21    0.45
   1   9  -8   10.44    0.34
   1   9  -8   10.86    0.33
  -1  -9   8    9.99    0.35
  -1  -9   8   11.12    0.34
  -1  -9   8   11.00    0.31
  -1  -9   8   10.88    0.31
   0   9  -8    0.29    0.12
   0   9  -8    0.43    0.08
   0   9  -8    0.30    0.16
   0   9  -8    0.34    0.11
   0   9  -8    0.28    0.09
   0  -9   8    0.29    0.09
   0  -9   8    0.43    0.08
   0  -9   8    0.35    0.08
  -1   9  -8    5.90    0.31
  -1   9  -8    5.64    0.29
  -1   9  -8    5.59    0.22
  -1   9  -8    5.79    0.25
  -1   9  -8    5.69    0.26
   1  -9   8    5.89    0.17
   1  -9   8    6.15    0.26
   1  -9   8    6.00    0.23
  -2   9  -8    0.18    0.14
  -2   9  -8    0.28    0.18
  -2   9  -8    0.23    0.10
  -2   9  -8    0.34    0.12
  -2   9  -8    0.24    0.11
   2  -9   8    0.25    0.11
   2  -9   8    0.22    0.09
  -3   9  -8    4.04    0.26
  -3   9  -8    4.45    0.33
  -3   9  -8    3.94    0.23
   3  -9   8    4.21    0.21
   3  -9   8    3.82    0.23
   4   8  -8    0.32    0.14
   4   8  -8    0.17    0.15
  -4  -8   8    0.38    0.14
   3   8  -8    0.13    0.11
   3   8  -8    0.04    0.11
   3   8  -8    0.02    0.11
   3   8  -8    0.10    0.15
  -3  -8   8    0.03    0.10
   2   8  -8    8.66    0.36
   2   8  -8    8.64    0.32
   2   8  -8    8.50    0.30
   2   8  -8    8.20    0.40
   2   8  -8    8.64    0.35
  -2  -8   8    8.33    0.26
  -2  -8   8    8.85    0.31
  -2  -8   8    9.13    0.31
   1   8  -8   11.48    0.34
   1   8  -8   12.38    0.45
   1   8  -8   11.95    0.39
   1   8  -8   10.96    0.43
   1   8  -8   11.20    0.38
   1   8  -8   11.37    0.35
  -1  -8   8   12.17    0.37
  -1  -8   8   11.89    0.35
  -1  -8   8   11.74    0.32
  -1  -8   8   11.61    0.31
   0   8  -8    2.15    0.14
   0   8  -8    2.46    0.16
   0   8  -8    2.07    0.12
   0   8  -8    2.31    0.18
   0   8  -8    2.10    0.19
   0  -8   8    2.38    0.12
   0  -8   8    2.18    0.13
   0  -8   8    2.23    0.14
   0  -8   8    2.07    0.11
  -1   8  -8   10.07    0.31
  -1   8  -8   10.63    0.35
  -1   8  -8   10.29    0.39
  -1   8  -8   10.13    0.41
  -1   8  -8    9.87    0.34
   1  -8   8   10.40    0.32
   1  -8   8   10.03    0.28
   1  -8   8   10.19    0.34
   1  -8   8   10.16    0.31
  -2   8  -8   10.05    0.37
  -2   8  -8   10.58    0.34
  -2   8  -8   10.50    0.37
  -2   8  -8   11.13    0.43
  -2   8  -8   10.66    0.44
   2  -8   8   10.91    0.35
   2  -8   8   10.27    0.35
  -3   8  -8    3.86    0.25
  -3   8  -8    3.35    0.30
  -3   8  -8    3.61    0.22
   3  -8   8    3.80    0.24
   3  -8   8    3.72    0.19
   4   7  -8    0.07    0.12
   4   7  -8    0.35    0.14
   4   7  -8    0.31    0.17
   4   7  -8    0.15    0.13
  -4  -7   8    0.09    0.12
   3   7  -8    8.56    0.33
   3   7  -8    8.26    0.31
   3   7  -8    8.59    0.39
   3   7  -8    7.76    0.36
   3   7  -8    7.65    0.31
  -3  -7   8    8.12    0.30
  -3  -7   8    8.21    0.32
   2   7  -8    1.35    0.12
   2   7  -8    1.21    0.12
   2   7  -8    1.54    0.17
   2   7  -8    1.30    0.12
   2   7  -8    1.33    0.14
  -2  -7   8    1.24    0.11
  -2  -7   8    1.20    0.12
  -2  -7   8    1.38    0.10
   1   7  -8    0.35    0.06
   1   7  -8    0.50    0.09
   1   7  -8    0.39    0.09
   1   7  -8    0.36    0.08
   1   7  -8    0.28    0.06
   1   7  -8    0.41    0.11
   1   7  -8    0.38    0.09
  -1  -7   8    0.23    0.09
  -1  -7   8    0.31    0.05
  -1  -7   8    0.39    0.06
  -1  -7   8    0.34    0.08
   0   7  -8    5.49    0.23
   0   7  -8    5.12    0.26
   0   7  -8    5.20    0.21
   0   7  -8    5.47    0.17
   0   7  -8    4.99    0.19
   0   7  -8    5.38    0.17
   0  -7   8    5.35    0.16
   0  -7   8    5.22    0.19
   0  -7   8    5.44    0.17
   0  -7   8    5.60    0.18
  -1   7  -8    9.87    0.32
  -1   7  -8    9.78    0.29
  -1   7  -8    9.61    0.38
  -1   7  -8   10.20    0.32
  -1   7  -8    9.59    0.37
   1  -7   8    9.83    0.27
   1  -7   8   10.14    0.29
   1  -7   8    9.95    0.30
   1  -7   8    9.58    0.32
  -2   7  -8    3.53    0.20
  -2   7  -8    3.74    0.18
  -2   7  -8    3.86    0.25
  -2   7  -8    3.82    0.20
  -2   7  -8    3.96    0.26
   2  -7   8    3.87    0.20
   2  -7   8    3.70    0.19
   2  -7   8    3.54    0.16
   2  -7   8    3.34    0.16
  -3   7  -8    0.67    0.18
  -3   7  -8    0.87    0.14
  -3   7  -8    0.77    0.13
   3  -7   8    0.90    0.10
   3  -7   8    0.71    0.13
   4   6  -8    1.62    0.16
   4   6  -8    2.02    0.23
   4   6  -8    1.73    0.18
  -4  -6   8    1.71    0.17
   3   6  -8    1.67    0.14
   3   6  -8    1.32    0.13
   3   6  -8    1.26    0.16
   3   6  -8    1.50    0.14
   3   6  -8    1.81    0.15
   3   6  -8    1.60    0.17
  -3  -6   8    1.72    0.14
  -3  -6   8    1.67    0.15
   2   6  -8    9.78    0.33
   2   6  -8    9.58    0.31
   2   6  -8    9.56    0.32
   2   6  -8    9.18    0.35
   2   6  -8    9.91    0.29
   2   6  -8    9.06    0.30
   2   6  -8    9.79    0.37
  -2  -6   8    9.72    0.26
  -2  -6   8    9.56    0.30
  -2  -6   8    9.46    0.32
   1   6  -8    5.66    0.22
   1   6  -8    5.67    0.16
   1   6  -8    5.59    0.16
   1   6  -8    5.47    0.19
   1   6  -8    5.70    0.25
   1   6  -8    5.54    0.20
   1   6  -8    5.40    0.22
  -1  -6   8    5.61    0.15
  -1  -6   8    5.46    0.20
  -1  -6   8    5.48    0.18
  -1  -6   8    5.52    0.15
  -1  -6   8    5.64    0.17
  -1  -6   8    5.43    0.21
   0   6  -8    4.59    0.22
   0   6  -8    4.49    0.13
   0   6  -8    4.53    0.13
   0   6  -8    4.43    0.18
   0   6  -8    4.52    0.19
   0   6  -8    4.36    0.16
   0  -6   8    4.57    0.13
   0  -6   8    4.22    0.15
   0  -6   8    4.64    0.16
   0  -6   8    4.61    0.16
   0  -6   8    4.38    0.12
   0  -6   8    4.60    0.14
  -1   6  -8    2.06    0.13
  -1   6  -8    2.05    0.18
  -1   6  -8    2.02    0.13
  -1   6  -8    2.20    0.16
  -1   6  -8    2.00    0.11
  -1   6  -8    2.18    0.13
   1  -6   8    1.96    0.11
   1  -6   8    2.15    0.08
   1  -6   8    2.04    0.12
   1  -6   8    2.11    0.10
   1  -6   8    2.23    0.14
   1  -6   8    2.07    0.11
  -2   6  -8    6.49    0.26
  -2   6  -8    6.64    0.26
  -2   6  -8    6.34    0.30
  -2   6  -8    6.41    0.23
  -2   6  -8    6.52    0.30
   2  -6   8    6.17    0.24
   2  -6   8    6.11    0.24
   2  -6   8    6.39    0.19
   2  -6   8    6.15    0.21
   2  -6   8    6.16    0.21
  -3   6  -8    6.05    0.26
  -3   6  -8    6.35    0.35
  -3   6  -8    6.43    0.29
   3  -6   8    6.29    0.27
   3  -6   8    6.27    0.27
   3  -6   8    5.95    0.21
   4   5  -8    0.20    0.12
   4   5  -8    0.09    0.12
   4   5  -8    0.11    0.11
   4   5  -8   -0.02    0.15
  -4  -5   8    0.11    0.11
   3   5  -8    1.07    0.11
   3   5  -8    1.02    0.12
   3   5  -8    0.82    0.14
   3   5  -8    1.12    0.13
   3   5  -8    1.04    0.19
  -3  -5   8    1.09    0.11
  -3  -5   8    0.91    0.12
  -3  -5   8    1.04    0.10
   2   5  -8    8.54    0.30
   2   5  -8    8.83    0.29
   2   5  -8    8.88    0.27
   2   5  -8    9.02    0.26
   2   5  -8    9.24    0.29
   2   5  -8    8.93    0.34
   2   5  -8    9.75    0.36
  -2  -5   8    8.75    0.27
  -2  -5   8    9.07    0.24
  -2  -5   8    8.65    0.30
  -2  -5   8    9.09    0.27
   1   5  -8   24.03    0.73
   1   5  -8   23.18    0.63
   1   5  -8   22.75    0.66
   1   5  -8   25.60    0.72
  -1  -5   8   23.70    0.59
  -1  -5   8   24.28    0.63
  -1  -5   8   23.69    0.60
  -1  -5   8   23.52    0.61
   0   5  -8    0.15    0.07
   0   5  -8    0.01    0.06
   0   5  -8    0.11    0.05
   0   5  -8    0.07    0.04
   0  -5   8    0.14    0.06
   0  -5   8    0.14    0.04
   0  -5   8    0.11    0.04
  -1   5  -8    9.60    0.27
  -1   5  -8    9.50    0.30
  -1   5  -8    9.71    0.28
  -1   5  -8    9.66    0.35
  -1   5  -8    9.12    0.30
  -1   5  -8    9.76    0.34
   1  -5   8    9.67    0.29
   1  -5   8    9.70    0.25
   1  -5   8    9.79    0.28
   1  -5   8    9.48    0.28
   1  -5   8   10.31    0.26
   1  -5   8    9.46    0.25
  -2   5  -8   14.95    0.47
  -2   5  -8   15.14    0.44
  -2   5  -8   15.57    0.54
  -2   5  -8   15.46    0.54
  -2   5  -8   15.42    0.47
   2  -5   8   15.59    0.35
   2  -5   8   14.94    0.40
   2  -5   8   14.82    0.43
   2  -5   8   14.74    0.39
   2  -5   8   15.22    0.44
  -3   5  -8    4.16    0.30
  -3   5  -8    4.02    0.23
  -3   5  -8    3.53    0.21
  -3   5  -8    3.99    0.23
   3  -5   8    3.82    0.16
   3  -5   8    3.85    0.22
   3  -5   8    3.87    0.22
  -4   5  -8    0.27    0.14
  -4   5  -8    0.57    0.16
   4  -5   8    0.34    0.14
   4  -5   8    0.36    0.11
   5   4  -8    0.24    0.15
  -5  -4   8    0.19    0.14
   4   4  -8    0.08    0.11
   4   4  -8    0.04    0.11
   4   4  -8    0.11    0.16
   4   4  -8    0.09    0.12
  -4  -4   8    0.14    0.11
   3   4  -8    9.11    0.32
   3   4  -8    9.37    0.30
   3   4  -8    9.23    0.37
   3   4  -8    8.89    0.32
   3   4  -8    9.96    0.40
   3   4  -8    9.22    0.32
  -3  -4   8    9.39    0.30
  -3  -4   8    9.05    0.32
  -3  -4   8    9.52    0.27
   2   4  -8    9.91    0.29
   2   4  -8    9.58    0.31
   2   4  -8   10.02    0.29
   2   4  -8    9.78    0.35
   2   4  -8   10.92    0.36
   2   4  -8   10.47    0.33
   2   4  -8    9.77    0.35
   2   4  -8   10.48    0.28
   2   4  -8    9.76    0.31
  -2  -4   8   10.06    0.29
  -2  -4   8    9.74    0.25
  -2  -4   8   10.32    0.29
  -2  -4   8    9.90    0.32
  -2  -4   8   10.16    0.29
   1   4  -8    0.85    0.06
   1   4  -8    0.89    0.07
   1   4  -8    0.86    0.06
   1   4  -8    0.81    0.06
  -1  -4   8    0.98    0.06
  -1  -4   8    0.82    0.06
  -1  -4   8    0.89    0.09
   0   4  -8   17.21    0.45
   0   4  -8   16.91    0.45
   0  -4   8   16.67    0.42
   0  -4   8   16.61    0.42
   0  -4   8   17.53    0.45
  -1   4  -8   13.86    0.40
  -1   4  -8   14.37    0.46
  -1   4  -8   13.47    0.45
  -1   4  -8   14.17    0.37
  -1   4  -8   14.85    0.38
  -1   4  -8   13.80    0.40
  -1   4  -8   13.40    0.46
   1  -4   8   14.29    0.38
   1  -4   8   13.95    0.34
   1  -4   8   13.57    0.34
   1  -4   8   13.78    0.37
   1  -4   8   14.62    0.38
   1  -4   8   13.73    0.38
   1  -4   8   13.91    0.37
  -2   4  -8    2.67    0.21
  -2   4  -8    2.83    0.15
  -2   4  -8    2.56    0.17
  -2   4  -8    2.21    0.20
  -2   4  -8    2.43    0.16
   2  -4   8    2.34    0.13
   2  -4   8    2.45    0.10
   2  -4   8    2.54    0.15
   2  -4   8    2.72    0.16
   2  -4   8    2.52    0.13
   2  -4   8    2.78    0.12
  -3   4  -8    3.25    0.27
  -3   4  -8    2.94    0.18
  -3   4  -8    3.06    0.20
  -3   4  -8    2.59    0.21
   3  -4   8    2.59    0.16
   3  -4   8    3.02    0.20
   3  -4   8    2.98    0.15
   3  -4   8    2.83    0.19
  -4   4  -8    9.58    0.38
  -4   4  -8    9.59    0.41
   4  -4   8    9.57    0.30
   4  -4   8    9.26    0.37
   5   3  -8    1.75    0.18
   5   3  -8    1.65    0.20
  -5  -3   8    1.40    0.17
   4   3  -8    0.92    0.14
   4   3  -8    0.72    0.12
   4   3  -8    0.76    0.18
   4   3  -8    0.65    0.13
  -4  -3   8    0.90    0.13
   3   3  -8    1.36    0.12
   3   3  -8    1.12    0.12
   3   3  -8    1.14    0.14
   3   3  -8    1.32    0.11
   3   3  -8    1.30    0.14
   3   3  -8    1.46    0.16
  -3  -3   8    1.21    0.12
  -3  -3   8    1.35    0.11
  -3  -3   8    1.29    0.10
   2   3  -8   11.88    0.39
   2   3  -8   11.67    0.35
   2   3  -8   11.31    0.34
   2   3  -8   11.39    0.39
   2   3  -8   12.51    0.32
   2   3  -8   11.49    0.32
  -2  -3   8   12.08    0.32
  -2  -3   8   11.50    0.32
  -2  -3   8   12.17    0.32
  -2  -3   8   11.65    0.29
  -2  -3   8   11.84    0.36
   1   3  -8   19.12    0.50
   1   3  -8   19.57    0.50
  -1  -3   8   18.91    0.52
  -1  -3   8   19.95    0.47
  -1  -3   8   19.20    0.47
   0   3  -8   24.47    0.63
   0   3  -8   24.72    0.63
   0  -3   8   24.12    0.60
   0  -3   8   24.73    0.60
   0  -3   8   24.98    0.60
   0  -3   8   24.83    0.63
  -1   3  -8    0.34    0.11
  -1   3  -8    0.18    0.06
  -1   3  -8    0.23    0.06
  -1   3  -8    0.21    0.05
  -1   3  -8    0.20    0.05
  -1   3  -8    0.18    0.09
   1  -3   8    0.19    0.05
   1  -3   8    0.18    0.05
   1  -3   8    0.17    0.04
   1  -3   8    0.22    0.05
   1  -3   8    0.21    0.07
   1  -3   8    0.27    0.06
  -2   3  -8   18.26    0.55
  -2   3  -8   18.05    0.52
  -2   3  -8   18.99    0.63
  -2   3  -8   18.86    0.63
  -2   3  -8   19.27    0.55
  -2   3  -8   18.06    0.63
   2  -3   8   18.72    0.49
   2  -3   8   18.55    0.47
   2  -3   8   18.50    0.52
   2  -3   8   18.58    0.50
   2  -3   8   18.66    0.42
  -3   3  -8   14.79    0.56
  -3   3  -8   14.57    0.46
  -3   3  -8   14.24    0.48
  -3   3  -8   13.54    0.48
   3  -3   8   14.92    0.43
   3  -3   8   14.46    0.36
   3  -3   8   14.82    0.45
   3  -3   8   14.41    0.41
  -4   3  -8   -0.02    0.12
  -4   3  -8    0.13    0.14
   4  -3   8    0.08    0.14
   4  -3   8    0.05    0.10
   5   2  -8    0.58    0.16
   5   2  -8    0.51    0.14
  -5  -2   8    0.35    0.14
   4   2  -8    0.07    0.11
   4   2  -8   -0.22    0.14
   4   2  -8    0.16    0.10
   4   2  -8    0.10    0.11
  -4  -2   8    0.03    0.10
   3   2  -8   10.32    0.38
   3   2  -8   10.16    0.31
   3   2  -8    9.92    0.39
   3   2  -8    9.96    0.34
   3   2  -8    9.94    0.34
  -3  -2   8    9.48    0.31
  -3  -2   8   10.36    0.32
  -3  -2   8   10.18    0.31
  -3  -2   8   10.00    0.34
  -3  -2   8   10.51    0.28
   2   2  -8   20.24    0.52
   2   2  -8   20.97    0.53
   2   2  -8   19.64    0.56
   2   2  -8   20.47    0.56
   2   2  -8   19.96    0.63
   2   2  -8   20.84    0.63
  -2  -2   8   20.42    0.53
  -2  -2   8   19.34    0.56
  -2  -2   8   20.36    0.47
  -2  -2   8   20.51    0.52
  -2  -2   8   20.25    0.52
   1   2  -8   13.49    0.35
   1   2  -8   13.14    0.35
  -1  -2   8   12.98    0.33
  -1  -2   8   13.11    0.38
  -1  -2   8   13.28    0.33
   0   2  -8    2.84    0.10
   0   2  -8    2.72    0.10
   0  -2   8    2.94    0.11
   0  -2   8    2.73    0.09
   0  -2   8    3.01    0.13
   0  -2   8    2.82    0.09
  -1   2  -8   25.69    0.80
  -1   2  -8   25.91    0.70
  -1   2  -8   26.69    0.80
  -1   2  -8   26.22    0.66
  -1   2  -8   25.99    0.67
  -1   2  -8   25.46    0.70
   1  -2   8   26.21    0.66
   1  -2   8   26.48    0.60
   1  -2   8   25.17    0.66
   1  -2   8   25.45    0.60
   1  -2   8   25.75    0.67
   1  -2   8   25.77    0.63
  -2   2  -8    2.76    0.15
  -2   2  -8    2.81    0.20
  -2   2  -8    2.86    0.18
  -2   2  -8    2.85    0.17
   2  -2   8    3.02    0.16
   2  -2   8    3.22    0.16
   2  -2   8    2.59    0.15
   2  -2   8    2.96    0.15
   2  -2   8    2.90    0.14
   2  -2   8    2.94    0.11
  -3   2  -8    1.12    0.15
  -3   2  -8    1.21    0.19
  -3   2  -8    1.56    0.19
  -3   2  -8    1.08    0.15
  -3   2  -8    0.98    0.13
   3  -2   8    1.19    0.10
   3  -2   8    1.12    0.12
   3  -2   8    1.05    0.14
  -4   2  -8    0.40    0.14
   4  -2   8    0.69    0.12
   4  -2   8    0.31    0.14
   5   1  -8    0.48    0.15
   5   1  -8    0.42    0.14
  -5  -1   8    0.34    0.14
   4   1  -8    1.05    0.14
   4   1  -8    0.76    0.17
   4   1  -8    0.89    0.14
   4   1  -8    0.86    0.12
  -4  -1   8    0.81    0.13
   3   1  -8    6.64    0.23
   3   1  -8    6.31    0.25
   3   1  -8    6.79    0.30
   3   1  -8    6.07    0.29
   3   1  -8    6.83    0.25
  -3  -1   8    6.38    0.26
  -3  -1   8    6.97    0.23
  -3  -1   8    6.40    0.21
  -3  -1   8    6.72    0.24
  -3  -1   8    6.32    0.24
   2   1  -8    5.68    0.21
   2   1  -8    5.89    0.24
   2   1  -8    6.26    0.19
   2   1  -8    5.91    0.21
   2   1  -8    5.83    0.24
   2   1  -8    6.16    0.19
  -2  -1   8    5.96    0.19
  -2  -1   8    6.00    0.23
  -2  -1   8    6.17    0.19
  -2  -1   8    6.12    0.17
  -2  -1   8    6.06    0.19
  -2  -1   8    6.10    0.18
   1   1  -8   13.56    0.41
   1   1  -8   13.09    0.36
   1   1  -8   13.22    0.36
   1   1  -8   13.34    0.40
  -1  -1   8   13.27    0.38
  -1  -1   8   13.22    0.33
  -1  -1   8   13.12    0.33
  -1  -1   8   13.12    0.34
  -1  -1   8   13.02    0.34
   0   1  -8   20.57    0.51
   0   1  -8   20.36    0.51
   0   1  -8   20.78    0.56
   0   1  -8   20.37    0.62
   0   1  -8   20.56    0.55
   0   1  -8   21.21    0.63
   0  -1   8   20.84    0.52
   0  -1   8   20.52    0.49
   0  -1   8   20.37    0.52
   0  -1   8   20.49    0.52
  -1   1  -8   16.39    0.54
  -1   1  -8   16.11    0.42
  -1   1  -8   16.16    0.47
  -1   1  -8   15.79    0.53
  -1   1  -8   16.62    0.45
  -1   1  -8   16.55    0.44
  -1   1  -8   16.06    0.47
   1  -1   8   16.84    0.41
   1  -1   8   16.26    0.44
   1  -1   8   16.58    0.44
   1  -1   8   16.74    0.40
   1  -1   8   16.36    0.44
  -2   1  -8    1.29    0.15
  -2   1  -8    0.61    0.18
  -2   1  -8    0.99    0.11
  -2   1  -8    1.07    0.12
  -2   1  -8    1.14    0.11
   2  -1   8    1.32    0.11
   2  -1   8    1.12    0.11
   2  -1   8    1.33    0.12
   2  -1   8    1.12    0.09
   2  -1   8    1.12    0.07
  -3   1  -8    3.39    0.20
  -3   1  -8    3.55    0.29
  -3   1  -8    3.27    0.29
  -3   1  -8    3.16    0.22
   3  -1   8    3.30    0.19
   3  -1   8    3.50    0.16
   3  -1   8    3.36    0.21
  -4   1  -8    4.27    0.25
   4  -1   8    4.52    0.27
   4  -1   8    4.35    0.21
   5   0  -8    0.09    0.13
  -5   0   8    0.24    0.14
   4   0  -8    1.07    0.14
   4   0  -8    1.22    0.15
   4   0  -8    1.11    0.18
   4   0  -8    0.96    0.13
  -4   0   8    1.11    0.14
  -4   0   8    0.99    0.11
   3   0  -8    0.01    0.10
   3   0  -8    0.16    0.08
   3   0  -8    0.02    0.11
   3   0  -8    0.01    0.08
   3   0  -8   -0.06    0.06
   3   0  -8    0.07    0.08
  -3   0   8    0.05    0.08
  -3   0   8   -0.02    0.07
  -3   0   8    0.01    0.08
  -3   0   8    0.04    0.07
  -3   0   8   -0.09    0.07
   2   0  -8   10.36    0.32
   2   0  -8   10.30    0.30
   2   0  -8   10.37    0.32
   2   0  -8   10.51    0.30
   2   0  -8   10.61    0.28
   2   0  -8   10.55    0.37
   2   0  -8   10.85    0.37
  -2   0   8   10.09    0.33
  -2   0   8   10.79    0.28
  -2   0   8   10.88    0.30
  -2   0   8   10.57    0.30
  -2   0   8   10.47    0.30
  -2   0   8   10.58    0.28
   1   0  -8   28.67    0.85
   1   0  -8   28.41    0.76
   1   0  -8   28.26    0.70
   1   0  -8   27.45    0.74
   1   0  -8   28.55    0.70
   1   0  -8   28.69    0.84
  -1   0   8   28.16    0.70
  -1   0   8   27.65    0.70
  -1   0   8   27.10    0.73
  -1   0   8   27.45    0.70
  -1   0   8   27.62    0.70
   0   0  -8   21.35    0.59
   0   0  -8   21.93    0.56
   0   0  -8   21.75    0.55
   0   0  -8   22.12    0.67
   0   0  -8   21.89    0.60
   0   0  -8   22.40    0.69
   0   0   8   22.06    0.50
   0   0   8   21.22    0.57
   0   0   8   21.82    0.56
   0   0   8   21.36    0.56
  -1   0  -8    0.12    0.08
  -1   0  -8    0.12    0.07
  -1   0  -8    0.12    0.09
  -1   0  -8    0.04    0.05
  -1   0  -8    0.22    0.07
  -1   0  -8    0.15    0.05
  -1   0  -8    0.06    0.07
   1   0   8    0.09    0.06
   1   0   8    0.13    0.06
   1   0   8    0.16    0.06
   1   0   8    0.07    0.06
   1   0   8    0.05    0.06
  -2   0  -8    7.55    0.33
  -2   0  -8    7.37    0.29
  -2   0  -8    7.77    0.25
  -2   0  -8    7.86    0.29
  -2   0  -8    7.51    0.27
   2   0   8    7.24    0.24
   2   0   8    7.34    0.21
   2   0   8    8.06    0.28
   2   0   8    8.23    0.31
   2   0   8    7.38    0.27
  -3   0  -8   15.76    0.50
  -3   0  -8   15.53    0.53
   3   0   8   16.35    0.41
   3   0   8   16.73    0.46
   3   0   8   16.20    0.50
  -4   0  -8    0.77    0.15
   4   0   8    0.70    0.12
   4   0   8    0.53    0.15
   5  -1  -8    3.38    0.23
  -5   1   8    3.34    0.23
   4  -1  -8    0.04    0.10
   4  -1  -8   -0.04    0.14
   4  -1  -8    0.12    0.11
  -4   1   8    0.04    0.09
  -4   1   8    0.07    0.10
   3  -1  -8    7.91    0.35
   3  -1  -8    8.40    0.28
   3  -1  -8    8.05    0.34
   3  -1  -8    8.48    0.31
   3  -1  -8    8.30    0.30
   3  -1  -8    8.72    0.27
  -3   1   8    8.74    0.26
  -3   1   8    8.11    0.28
  -3   1   8    8.67    0.29
  -3   1   8    8.56    0.25
  -3   1   8    8.39    0.26
  -3   1   8    8.43    0.30
   2  -1  -8   27.85    0.84
   2  -1  -8   26.68    0.67
   2  -1  -8   27.42    0.74
   2  -1  -8   26.08    0.73
   2  -1  -8   26.54    0.69
   2  -1  -8   26.51    0.84
  -2   1   8   26.45    0.63
  -2   1   8   26.97    0.63
  -2   1   8   26.50    0.72
  -2   1   8   26.89    0.62
  -2   1   8   26.11    0.55
  -2   1   8   26.11    0.69
  -2   1   8   25.94    0.68
  -2   1   8   26.61    0.69
   1  -1  -8   14.59    0.35
   1  -1  -8   14.40    0.39
   1  -1  -8   14.68    0.38
   1  -1  -8   14.76    0.44
   1  -1  -8   14.09    0.47
   1  -1  -8   14.62    0.48
   1  -1  -8   13.60    0.41
   1  -1  -8   14.76    0.39
  -1   1   8   13.74    0.34
  -1   1   8   14.12    0.39
  -1   1   8   14.54    0.39
  -1   1   8   14.37    0.34
  -1   1   8   13.93    0.39
   0  -1  -8   34.18    0.88
   0  -1  -8   34.31    0.83
   0  -1  -8   34.96    0.92
   0  -1  -8   34.20    0.87
   0  -1  -8   34.87    1.04
   0  -1  -8   34.60    0.93
   0  -1  -8   34.37    1.06
   0   1   8   33.04    0.88
   0   1   8   33.46    0.78
   0   1   8   34.56    0.86
   0   1   8   33.51    0.87
  -1  -1  -8    9.04    0.30
  -1  -1  -8    9.55    0.36
  -1  -1  -8    9.56    0.25
  -1  -1  -8    9.71    0.32
  -1  -1  -8   10.18    0.38
  -1  -1  -8    9.15    0.32
  -1  -1  -8    9.44    0.29
  -1  -1  -8    9.75    0.29
   1   1   8    8.90    0.29
   1   1   8    9.30    0.30
   1   1   8    9.44    0.22
   1   1   8    9.70    0.23
   1   1   8   10.15    0.30
  -2  -1  -8    3.18    0.19
  -2  -1  -8    3.56    0.19
  -2  -1  -8    3.20    0.16
  -2  -1  -8    3.06    0.20
  -2  -1  -8    3.22    0.23
   2   1   8    3.44    0.19
   2   1   8    3.03    0.16
   2   1   8    3.02    0.21
   2   1   8    3.50    0.19
   2   1   8    3.34    0.14
  -3  -1  -8   -0.05    0.21
  -3  -1  -8    0.33    0.11
  -3  -1  -8    0.34    0.13
   3   1   8    0.04    0.08
   3   1   8    0.32    0.10
   3   1   8    0.09    0.11
   5  -2  -8    0.36    0.14
  -5   2   8   -0.03    0.14
   4  -2  -8    1.71    0.22
   4  -2  -8    1.80    0.17
   4  -2  -8    1.61    0.15
  -4   2   8    1.69    0.14
  -4   2   8    1.55    0.16
   3  -2  -8    6.57    0.25
   3  -2  -8    6.72    0.23
   3  -2  -8    6.52    0.31
   3  -2  -8    6.31    0.26
   3  -2  -8    6.21    0.31
   3  -2  -8    6.33    0.26
  -3   2   8    6.05    0.25
  -3   2   8    6.12    0.24
  -3   2   8    6.36    0.26
  -3   2   8    6.47    0.22
  -3   2   8    6.18    0.22
  -3   2   8    6.41    0.21
   2  -2  -8    0.82    0.09
   2  -2  -8    0.45    0.09
   2  -2  -8    0.70    0.12
   2  -2  -8    0.49    0.09
   2  -2  -8    0.68    0.07
   2  -2  -8    0.68    0.12
   2  -2  -8    0.58    0.08
  -2   2   8    0.61    0.04
  -2   2   8    0.50    0.05
  -2   2   8    0.69    0.09
  -2   2   8    0.48    0.07
  -2   2   8    0.52    0.08
  -2   2   8    0.53    0.08
  -2   2   8    0.50    0.09
   1  -2  -8   13.96    0.42
   1  -2  -8   13.43    0.45
   1  -2  -8   13.81    0.38
   1  -2  -8   13.64    0.36
   1  -2  -8   13.93    0.47
   1  -2  -8   13.85    0.48
  -1   2   8   13.50    0.34
  -1   2   8   13.48    0.40
  -1   2   8   13.70    0.35
  -1   2   8   13.48    0.38
  -1   2   8   14.11    0.41
   0  -2  -8   76.52    2.26
   0  -2  -8   78.54    1.98
   0  -2  -8   75.32    1.99
   0  -2  -8   73.35    1.90
   0  -2  -8   73.28    1.83
   0  -2  -8   74.97    2.23
   0   2   8   75.83    1.87
   0   2   8   75.24    1.70
   0   2   8   74.49    1.90
   0   2   8   76.86    1.56
   0   2   8   76.73    1.86
   0   2   8   76.32    1.56
  -1  -2  -8    0.70    0.09
  -1  -2  -8    0.51    0.14
  -1  -2  -8    0.55    0.11
  -1  -2  -8    0.66    0.06
  -1  -2  -8    0.55    0.10
  -1  -2  -8    0.54    0.10
  -1  -2  -8    0.76    0.09
  -1  -2  -8    0.52    0.09
   1   2   8    0.64    0.09
   1   2   8    0.66    0.06
   1   2   8    0.50    0.10
   1   2   8    0.73    0.10
  -2  -2  -8    2.73    0.23
  -2  -2  -8    2.64    0.23
  -2  -2  -8    2.55    0.19
  -2  -2  -8    2.58    0.18
  -2  -2  -8    2.72    0.20
  -2  -2  -8    2.81    0.16
   2   2   8    2.60    0.13
   2   2   8    2.96    0.17
   2   2   8    2.82    0.18
   2   2   8    2.53    0.18
   2   2   8    2.55    0.17
  -3  -2  -8    4.88    0.25
  -3  -2  -8    5.65    0.29
   3   2   8    4.81    0.25
   3   2   8    4.96    0.20
   3   2   8    5.31    0.24
   5  -3  -8    0.91    0.16
  -5   3   8    1.18    0.18
   4  -3  -8    0.98    0.15
   4  -3  -8    1.06    0.14
   4  -3  -8    0.93    0.20
  -4   3   8    0.98    0.12
  -4   3   8    1.26    0.15
   3  -3  -8    0.77    0.12
   3  -3  -8    0.84    0.14
   3  -3  -8    0.64    0.11
   3  -3  -8    0.76    0.10
   3  -3  -8    0.65    0.12
   3  -3  -8    0.73    0.16
  -3   3   8    0.73    0.10
  -3   3   8    0.67    0.11
  -3   3   8    0.73    0.11
  -3   3   8    0.76    0.10
  -3   3   8    0.73    0.11
  -3   3   8    0.65    0.08
   2  -3  -8   17.92    0.48
   2  -3  -8   18.01    0.52
   2  -3  -8   17.69    0.51
   2  -3  -8   18.38    0.54
   2  -3  -8   18.28    0.61
   2  -3  -8   18.30    0.63
   2  -3  -8   18.51    0.54
  -2   3   8   17.45    0.50
  -2   3   8   17.69    0.45
  -2   3   8   17.66    0.47
  -2   3   8   18.47    0.41
  -2   3   8   18.12    0.50
  -2   3   8   17.44    0.52
   1  -3  -8   24.31    0.63
   1  -3  -8   25.00    0.80
   1  -3  -8   25.38    0.81
   1  -3  -8   25.29    0.67
   1  -3  -8   24.02    0.74
   1  -3  -8   24.45    0.66
   1  -3  -8   24.52    0.72
  -1   3   8   23.83    0.68
  -1   3   8   25.22    0.60
  -1   3   8   24.25    0.66
  -1   3   8   25.02    0.59
  -1   3   8   24.82    0.53
   0  -3  -8    3.23    0.20
   0  -3  -8    3.48    0.17
   0  -3  -8    3.26    0.19
   0  -3  -8    3.41    0.19
   0  -3  -8    3.41    0.15
   0  -3  -8    3.28    0.17
   0  -3  -8    3.46    0.24
   0   3   8    3.11    0.15
   0   3   8    3.12    0.11
   0   3   8    2.87    0.17
   0   3   8    3.49    0.18
  -1  -3  -8    4.98    0.22
  -1  -3  -8    4.87    0.23
  -1  -3  -8    5.44    0.24
  -1  -3  -8    4.94    0.24
  -1  -3  -8    5.05    0.16
  -1  -3  -8    4.90    0.31
  -1  -3  -8    5.21    0.24
  -1  -3  -8    5.30    0.27
   1   3   8    5.09    0.22
   1   3   8    5.21    0.16
   1   3   8    5.18    0.24
   1   3   8    4.79    0.21
  -2  -3  -8    9.23    0.36
  -2  -3  -8    9.73    0.37
  -2  -3  -8    9.42    0.35
  -2  -3  -8    9.58    0.43
   2   3   8    9.98    0.34
   2   3   8    9.07    0.34
   2   3   8    9.49    0.27
  -3  -3  -8    5.00    0.29
  -3  -3  -8    5.04    0.27
   3   3   8    4.94    0.26
   3   3   8    5.46    0.21
   5  -4  -8    0.54    0.16
  -5   4   8    0.87    0.17
   4  -4  -8    0.14    0.13
   4  -4  -8    0.12    0.17
   4  -4  -8    0.00    0.12
  -4   4   8    0.23    0.12
  -4   4   8    0.12    0.10
   3  -4  -8    5.99    0.27
   3  -4  -8    6.57    0.25
   3  -4  -8    5.80    0.25
   3  -4  -8    6.09    0.32
   3  -4  -8    6.43    0.33
   3  -4  -8    6.68    0.28
  -3   4   8    6.32    0.26
  -3   4   8    6.20    0.26
  -3   4   8    6.05    0.22
  -3   4   8    6.32    0.26
   2  -4  -8   11.07    0.37
   2  -4  -8   11.25    0.38
   2  -4  -8   10.28    0.45
   2  -4  -8   11.02    0.33
   2  -4  -8   10.35    0.35
   2  -4  -8   11.35    0.44
  -2   4   8   11.21    0.33
  -2   4   8   11.30    0.36
  -2   4   8   10.24    0.35
  -2   4   8   10.54    0.31
   1  -4  -8    0.40    0.09
   1  -4  -8    0.38    0.13
   1  -4  -8    0.25    0.11
   1  -4  -8    0.45    0.13
   1  -4  -8    0.53    0.08
   1  -4  -8    0.69    0.10
   1  -4  -8    0.47    0.12
  -1   4   8    0.28    0.11
  -1   4   8    0.49    0.08
  -1   4   8    0.44    0.06
  -1   4   8    0.55    0.10
  -1   4   8    0.55    0.08
   0  -4  -8    7.65    0.29
   0  -4  -8    7.72    0.34
   0  -4  -8    8.10    0.31
   0  -4  -8    8.06    0.38
   0  -4  -8    7.56    0.28
   0  -4  -8    7.95    0.27
   0  -4  -8    7.88    0.31
   0   4   8    7.39    0.29
   0   4   8    8.17    0.25
   0   4   8    8.47    0.30
   0   4   8    7.79    0.21
   0   4   8    7.66    0.25
  -1  -4  -8    3.40    0.18
  -1  -4  -8    2.81    0.26
  -1  -4  -8    3.82    0.24
  -1  -4  -8    3.13    0.21
  -1  -4  -8    3.08    0.20
  -1  -4  -8    2.73    0.21
  -1  -4  -8    3.06    0.21
   1   4   8    3.21    0.19
   1   4   8    3.22    0.22
   1   4   8    3.47    0.20
   1   4   8    3.03    0.14
  -2  -4  -8    4.46    0.32
  -2  -4  -8    3.81    0.23
  -2  -4  -8    4.45    0.25
   2   4   8    4.04    0.23
   2   4   8    4.10    0.23
   2   4   8    4.20    0.18
  -3  -4  -8    0.21    0.12
   3   4   8    0.07    0.12
   3   4   8    0.03    0.09
   4  -5  -8    0.55    0.14
   4  -5  -8    0.77    0.15
  -4   5   8    0.83    0.15
   3  -5  -8    2.64    0.19
   3  -5  -8    3.00    0.19
   3  -5  -8    2.71    0.22
   3  -5  -8    2.55    0.18
  -3   5   8    2.71    0.19
  -3   5   8    2.49    0.19
  -3   5   8    2.29    0.18
  -3   5   8    2.60    0.16
   2  -5  -8    0.84    0.13
   2  -5  -8    0.74    0.16
   2  -5  -8    0.76    0.17
   2  -5  -8    0.82    0.13
   2  -5  -8    0.79    0.10
   2  -5  -8    0.94    0.12
  -2   5   8    0.81    0.12
  -2   5   8    0.92    0.10
  -2   5   8    0.84    0.13
  -2   5   8    0.56    0.11
   1  -5  -8   17.92    0.57
   1  -5  -8   14.00    0.54
   1  -5  -8   16.46    0.60
   1  -5  -8   16.72    0.60
   1  -5  -8   16.94    0.47
   1  -5  -8   17.35    0.50
  -1   5   8   16.54    0.51
  -1   5   8   16.02    0.44
  -1   5   8   16.98    0.45
  -1   5   8   15.28    0.51
  -1   5   8   16.52    0.39
   0  -5  -8   32.24    1.04
   0  -5  -8   32.13    0.93
   0  -5  -8   32.35    0.93
   0  -5  -8   33.09    1.06
   0  -5  -8   30.92    0.88
   0  -5  -8   32.55    0.85
   0   5   8   31.75    0.79
   0   5   8   31.60    0.71
   0   5   8   32.65    0.78
   0   5   8   31.86    0.88
   0   5   8   31.26    0.87
  -1  -5  -8    0.80    0.19
  -1  -5  -8    0.91    0.15
  -1  -5  -8    1.01    0.13
  -1  -5  -8    0.92    0.14
  -1  -5  -8    0.96    0.14
  -1  -5  -8    0.98    0.15
   1   5   8    0.98    0.13
   1   5   8    1.17    0.15
   1   5   8    0.81    0.13
   1   5   8    0.80    0.09
  -2  -5  -8    1.17    0.16
  -2  -5  -8    1.01    0.16
   2   5   8    1.27    0.15
   2   5   8    0.70    0.15
   2   5   8    1.20    0.11
  -3  -5  -8    3.36    0.26
   3   5   8    3.90    0.19
   3   5   8    3.77    0.26
   4  -6  -8    1.45    0.17
  -4   6   8    1.64    0.18
   3  -6  -8    0.28    0.13
   3  -6  -8    0.34    0.12
   3  -6  -8    0.06    0.17
   3  -6  -8    0.24    0.11
  -3   6   8    0.25    0.13
  -3   6   8    0.33    0.10
   2  -6  -8   22.13    0.66
   2  -6  -8   22.33    0.79
   2  -6  -8   22.87    0.63
   2  -6  -8   23.89    0.73
   2  -6  -8   22.20    0.71
  -2   6   8   21.95    0.67
  -2   6   8   22.20    0.58
  -2   6   8   22.87    0.67
   1  -6  -8    3.45    0.26
   1  -6  -8    3.06    0.20
   1  -6  -8    3.22    0.19
   1  -6  -8    3.08    0.24
   1  -6  -8    3.34    0.24
   1  -6  -8    2.93    0.23
  -1   6   8    2.76    0.22
  -1   6   8    3.07    0.14
  -1   6   8    2.97    0.17
  -1   6   8    3.12    0.23
   0  -6  -8    0.48    0.17
   0  -6  -8    0.50    0.13
   0  -6  -8    0.55    0.12
   0  -6  -8    0.65    0.12
   0  -6  -8    0.41    0.14
   0  -6  -8    0.47    0.13
   0   6   8    0.52    0.08
   0   6   8    0.72    0.12
   0   6   8    0.67    0.12
   0   6   8    0.63    0.11
  -1  -6  -8    1.71    0.18
  -1  -6  -8    2.29    0.25
  -1  -6  -8    2.07    0.17
  -1  -6  -8    1.71    0.17
   1   6   8    1.85    0.18
   1   6   8    1.63    0.17
   1   6   8    1.55    0.15
   1   6   8    1.67    0.11
  -2  -6  -8    2.72    0.24
   2   6   8    3.39    0.24
   2   6   8    3.93    0.18
   4  -7  -8    3.59    0.25
  -4   7   8    3.95    0.27
   3  -7  -8    2.94    0.24
   3  -7  -8    2.69    0.21
   3  -7  -8    2.94    0.21
  -3   7   8    3.14    0.24
   2  -7  -8    1.14    0.18
   2  -7  -8    1.65    0.23
   2  -7  -8    1.15    0.15
   2  -7  -8    1.33    0.15
  -2   7   8    0.99    0.18
  -2   7   8    1.36    0.13
  -2   7   8    1.38    0.17
   1  -7  -8    2.34    0.18
   1  -7  -8    2.29    0.24
   1  -7  -8    2.06    0.19
   1  -7  -8    2.16    0.20
  -1   7   8    2.34    0.20
  -1   7   8    2.07    0.19
  -1   7   8    2.29    0.16
   0  -7  -8    3.21    0.23
   0  -7  -8    3.84    0.22
   0  -7  -8    3.72    0.30
   0  -7  -8    3.74    0.22
   0   7   8    3.93    0.23
   0   7   8    3.12    0.21
   0   7   8    3.59    0.16
   0   7   8    3.46    0.19
  -1  -7  -8    4.62    0.29
  -1  -7  -8    4.71    0.26
  -1  -7  -8    4.89    0.25
   1   7   8    4.45    0.19
   1   7   8    4.67    0.26
  -2  -7  -8    0.44    0.16
   2   7   8    0.27    0.10
   2   7   8    0.38    0.15
   4  -8  -8    1.16    0.19
  -4   8   8    1.58    0.21
   3  -8  -8   -0.13    0.13
  -3   8   8    0.02    0.15
   2  -8  -8    0.19    0.12
   2  -8  -8    0.15    0.14
   2  -8  -8    0.00    0.13
  -2   8   8   -0.16    0.13
   1  -8  -8    8.27    0.38
   1  -8  -8    7.34    0.34
   1  -8  -8    7.87    0.32
  -1   8   8    7.82    0.35
  -1   8   8    8.34    0.37
  -1   8   8    7.62    0.29
   0  -8  -8    4.60    0.27
   0  -8  -8    4.52    0.25
   0  -8  -8    4.84    0.25
   0   8   8    4.20    0.24
   0   8   8    4.11    0.19
  -1  -8  -8    0.10    0.12
   1   8   8    0.15    0.09
   1   8   8    0.41    0.14
  -2  -8  -8    0.36    0.17
   2   8   8    0.36    0.16
   2   8   8    0.27    0.11
   3  -9  -8    0.72    0.18
  -3   9   8    0.76    0.21
   2  -9  -8    4.85    0.27
   2  -9  -8    4.71    0.29
  -2   9   8    3.98    0.30
   1  -9  -8    2.98    0.22
   1  -9  -8    3.44    0.25
  -1   9   8    3.35    0.25
   0  -9  -8    0.06    0.12
   0  -9  -8   -0.22    0.12
   0   9   8   -0.03    0.11
  -1  -9  -8    1.18    0.18
   1   9   8    1.15    0.18
   1   9   8    1.15    0.13
   2 -10  -8    0.35    0.17
  -2  10   8    0.61    0.19
   1 -10  -8    0.40    0.14
  -1  10   8    0.34    0.15
   0 -10  -8    3.45    0.25
   0  10   8    2.99    0.23
   1  12  -9   -0.01    0.10
   1  12  -9    0.07    0.12
   1  12  -9   -0.01    0.17
  -1 -12   9    0.07    0.12
   0  12  -9    2.57    0.21
   0  12  -9    2.45    0.21
   0  12  -9    2.65    0.18
   0  12  -9    2.41    0.25
   0 -12   9    2.58    0.15
   0 -12   9    2.66    0.20
  -1  12  -9    3.07    0.22
  -1  12  -9    3.29    0.31
  -1  12  -9    3.28    0.19
   1 -12   9    3.09    0.22
   1 -12   9    3.12    0.16
   2  11  -9    3.90    0.22
   2  11  -9    3.89    0.26
   2  11  -9    3.94    0.36
  -2 -11   9    3.99    0.26
   1  11  -9    0.93    0.15
   1  11  -9    1.18    0.20
   1  11  -9    0.94    0.14
   1  11  -9    0.92    0.12
   1  11  -9    1.27    0.21
  -1 -11   9    1.07    0.14
   0  11  -9    3.60    0.23
   0  11  -9    3.55    0.18
   0  11  -9    3.55    0.22
   0  11  -9    3.49    0.28
   0  11  -9    3.95    0.31
   0 -11   9    3.47    0.21
  -1  11  -9    0.23    0.16
  -1  11  -9    0.24    0.10
  -1  11  -9    0.35    0.14
  -1  11  -9    0.34    0.17
  -1  11  -9    0.30    0.12
   1 -11   9    0.32    0.08
   1 -11   9    0.22    0.11
  -2  11  -9    3.60    0.31
  -2  11  -9    3.04    0.23
  -2  11  -9    3.12    0.20
   2 -11   9    3.67    0.20
   2 -11   9    3.34    0.23
   3  10  -9    1.74    0.17
   3  10  -9    1.89    0.23
   3  10  -9    1.79    0.27
  -3 -10   9    1.75    0.20
   2  10  -9    2.17    0.21
   2  10  -9    2.07    0.17
   2  10  -9    2.18    0.23
   2  10  -9    1.84    0.25
   2  10  -9    2.25    0.17
  -2 -10   9    2.06    0.17
  -2 -10   9    2.48    0.21
   1  10  -9    0.45    0.09
   1  10  -9    0.28    0.16
   1  10  -9    0.49    0.12
   1  10  -9    0.47    0.11
   1  10  -9    0.54    0.16
  -1 -10   9    0.54    0.11
   0  10  -9    7.63    0.30
   0  10  -9    8.27    0.40
   0  10  -9    8.46    0.27
   0  10  -9    8.46    0.38
   0  10  -9    8.62    0.32
   0 -10   9    8.48    0.29
  -1  10  -9    5.89    0.28
  -1  10  -9    5.84    0.23
  -1  10  -9    6.24    0.33
  -1  10  -9    6.37    0.34
  -1  10  -9    5.97    0.26
   1 -10   9    5.92    0.25
   1 -10   9    6.26    0.19
  -2  10  -9    2.11    0.19
  -2  10  -9    1.97    0.15
  -2  10  -9    2.20    0.18
  -2  10  -9    1.82    0.22
   2 -10   9    1.91    0.14
   2 -10   9    2.27    0.17
   3   9  -9    0.25    0.13
   3   9  -9    0.05    0.17
   3   9  -9    0.04    0.13
  -3  -9   9    0.15    0.12
   2   9  -9   -0.04    0.13
   2   9  -9    0.21    0.12
   2   9  -9   -0.02    0.09
   2   9  -9    0.02    0.10
   2   9  -9    0.05    0.16
  -2  -9   9   -0.05    0.10
  -2  -9   9    0.05    0.12
   1   9  -9    1.42    0.18
   1   9  -9    1.40    0.13
   1   9  -9    1.64    0.19
   1   9  -9    1.37    0.13
   1   9  -9    1.73    0.12
  -1  -9   9    1.77    0.13
  -1  -9   9    1.81    0.14
  -1  -9   9    1.70    0.13
   0   9  -9    7.21    0.23
   0   9  -9    7.21    0.32
   0   9  -9    7.51    0.36
   0   9  -9    7.53    0.29
   0   9  -9    6.97    0.27
   0  -9   9    7.76    0.24
   0  -9   9    7.50    0.26
  -1   9  -9    2.40    0.14
  -1   9  -9    2.50    0.23
  -1   9  -9    2.20    0.16
  -1   9  -9    2.47    0.21
  -1   9  -9    2.14    0.17
   1  -9   9    2.46    0.16
   1  -9   9    2.21    0.17
  -2   9  -9    1.06    0.20
  -2   9  -9    1.17    0.12
  -2   9  -9    1.06    0.14
  -2   9  -9    1.37    0.15
  -2   9  -9    1.26    0.18
   2  -9   9    0.82    0.11
   2  -9   9    1.21    0.14
   3   8  -9    3.34    0.28
   3   8  -9    3.14    0.24
   3   8  -9    2.93    0.21
   3   8  -9    3.49    0.22
   3   8  -9    3.64    0.23
  -3  -8   9    3.55    0.22
   2   8  -9    1.45    0.11
   2   8  -9    1.26    0.12
   2   8  -9    1.34    0.16
   2   8  -9    1.27    0.16
   2   8  -9    1.43    0.18
  -2  -8   9    1.19    0.14
  -2  -8   9    1.21    0.13
   1   8  -9    1.19    0.15
   1   8  -9    1.25    0.16
   1   8  -9    1.19    0.09
   1   8  -9    1.23    0.12
   1   8  -9    1.09    0.11
   1   8  -9    1.35    0.11
  -1  -8   9    1.25    0.12
  -1  -8   9    1.20    0.09
  -1  -8   9    1.34    0.11
   0   8  -9    0.50    0.06
   0   8  -9    0.40    0.09
   0   8  -9    0.51    0.15
   0   8  -9    0.33    0.08
   0   8  -9    0.53    0.11
   0  -8   9    0.44    0.08
   0  -8   9    0.59    0.08
   0  -8   9    0.50    0.07
  -1   8  -9    5.85    0.30
  -1   8  -9    5.44    0.23
  -1   8  -9    5.56    0.24
  -1   8  -9    5.60    0.27
  -1   8  -9    5.64    0.20
   1  -8   9    5.40    0.24
   1  -8   9    5.67    0.21
   1  -8   9    5.70    0.22
  -2   8  -9    6.21    0.27
  -2   8  -9    6.51    0.34
  -2   8  -9    6.35    0.24
  -2   8  -9    6.78    0.34
  -2   8  -9    6.82    0.27
   2  -8   9    6.16    0.27
   2  -8   9    5.40    0.22
   2  -8   9    6.91    0.26
  -3   8  -9    1.20    0.16
  -3   8  -9    1.23    0.21
  -3   8  -9    1.04    0.14
   3  -8   9    1.33    0.16
   3  -8   9    1.31    0.13
   4   7  -9    0.39    0.13
   4   7  -9    0.23    0.17
   4   7  -9    0.32    0.14
   4   7  -9    0.39    0.13
  -4  -7   9    0.35    0.13
   3   7  -9    1.35    0.14
   3   7  -9    1.85    0.15
   3   7  -9    1.66    0.18
   3   7  -9    1.44    0.18
   3   7  -9    1.74    0.15
  -3  -7   9    1.66    0.14
   2   7  -9    6.75    0.30
   2   7  -9    6.62    0.25
   2   7  -9    6.41    0.31
   2   7  -9    6.89    0.27
   2   7  -9    6.91    0.23
  -2  -7   9    7.16    0.25
  -2  -7   9    6.80    0.21
  -2  -7   9    6.79    0.27
   1   7  -9    0.52    0.04
   1   7  -9    0.65    0.09
   1   7  -9    0.65    0.10
   1   7  -9    0.60    0.08
   1   7  -9    0.55    0.12
  -1  -7   9    0.44    0.06
  -1  -7   9    0.66    0.08
  -1  -7   9    0.65    0.09
  -1  -7   9    0.40    0.06
   0   7  -9    7.04    0.24
   0   7  -9    7.43    0.32
   0   7  -9    7.19    0.25
   0   7  -9    7.11    0.28
   0  -7   9    7.38    0.22
   0  -7   9    7.25    0.19
   0  -7   9    7.52    0.23
   0  -7   9    7.27    0.20
  -1   7  -9   14.03    0.49
  -1   7  -9   14.31    0.43
  -1   7  -9   14.36    0.38
  -1   7  -9   13.39    0.50
  -1   7  -9   13.70    0.42
   1  -7   9   14.52    0.40
   1  -7   9   14.43    0.37
   1  -7   9   14.32    0.36
   1  -7   9   14.35    0.42
  -2   7  -9    2.43    0.18
  -2   7  -9    2.74    0.24
  -2   7  -9    2.75    0.16
  -2   7  -9    2.59    0.23
  -2   7  -9    2.60    0.18
   2  -7   9    2.55    0.18
   2  -7   9    2.69    0.17
   2  -7   9    2.35    0.14
  -3   7  -9    0.61    0.19
  -3   7  -9    0.78    0.13
  -3   7  -9    0.74    0.14
   3  -7   9    0.94    0.11
   3  -7   9    0.69    0.14
   4   6  -9    2.21    0.18
   4   6  -9    2.38    0.24
   4   6  -9    2.18    0.19
  -4  -6   9    2.17    0.18
   3   6  -9    1.55    0.14
   3   6  -9    1.49    0.13
   3   6  -9    1.47    0.17
   3   6  -9    1.55    0.14
  -3  -6   9    1.56    0.13
  -3  -6   9    1.51    0.15
   2   6  -9    0.37    0.08
   2   6  -9    0.36    0.11
   2   6  -9    0.28    0.08
   2   6  -9    0.28    0.07
   2   6  -9    0.40    0.10
  -2  -6   9    0.33    0.10
  -2  -6   9    0.35    0.08
  -2  -6   9    0.34    0.06
   1   6  -9    9.24    0.32
   1   6  -9    8.90    0.30
   1   6  -9    8.31    0.26
   1   6  -9    8.30    0.27
  -1  -6   9    8.61    0.21
  -1  -6   9    8.76    0.21
  -1  -6   9    8.90    0.29
  -1  -6   9    8.67    0.26
   0   6  -9    8.89    0.35
   0   6  -9    9.37    0.32
   0   6  -9    9.26    0.28
   0   6  -9    9.52    0.29
   0  -6   9    9.77    0.23
   0  -6   9    9.61    0.23
   0  -6   9   10.26    0.28
   0  -6   9    9.37    0.26
  -1   6  -9    1.25    0.14
  -1   6  -9    1.43    0.12
  -1   6  -9    1.46    0.09
  -1   6  -9    1.25    0.13
  -1   6  -9    1.73    0.12
  -1   6  -9    1.15    0.10
   1  -6   9    1.32    0.09
   1  -6   9    1.35    0.12
   1  -6   9    1.43    0.10
   1  -6   9    1.23    0.09
  -2   6  -9    4.51    0.19
  -2   6  -9    4.29    0.27
  -2   6  -9    4.27    0.21
  -2   6  -9    4.20    0.26
  -2   6  -9    4.63    0.21
   2  -6   9    4.41    0.20
   2  -6   9    4.60    0.16
   2  -6   9    4.38    0.20
  -3   6  -9   12.83    0.45
  -3   6  -9   12.93    0.52
  -3   6  -9   12.20    0.41
   3  -6   9   12.67    0.34
   3  -6   9   12.91    0.42
   4   5  -9    0.75    0.18
   4   5  -9    0.62    0.13
   4   5  -9    0.54    0.13
  -4  -5   9    0.60    0.13
   3   5  -9    3.84    0.24
   3   5  -9    3.92    0.20
   3   5  -9    4.05    0.29
   3   5  -9    3.91    0.20
   3   5  -9    4.18    0.19
  -3  -5   9    4.21    0.18
  -3  -5   9    3.82    0.19
  -3  -5   9    3.96    0.21
   2   5  -9    8.13    0.32
   2   5  -9    7.86    0.26
   2   5  -9    7.63    0.30
   2   5  -9    8.08    0.23
   2   5  -9    7.79    0.24
   2   5  -9    7.60    0.26
  -2  -5   9    7.54    0.24
  -2  -5   9    7.85    0.21
  -2  -5   9    7.74    0.28
   1   5  -9    8.45    0.25
   1   5  -9    9.54    0.30
   1   5  -9    8.33    0.25
   1   5  -9    8.70    0.29
  -1  -5   9    8.75    0.24
  -1  -5   9    8.84    0.28
  -1  -5   9    8.91    0.25
   0   5  -9    0.69    0.05
   0   5  -9    0.65    0.06
   0   5  -9    0.69    0.06
   0   5  -9    0.66    0.09
   0  -5   9    0.80    0.08
   0  -5   9    0.78    0.05
   0  -5   9    0.82    0.06
  -1   5  -9   20.54    0.56
  -1   5  -9   19.71    0.56
  -1   5  -9   20.14    0.64
  -1   5  -9   21.22    0.52
  -1   5  -9   20.07    0.65
  -1   5  -9   20.34    0.53
   1  -5   9   19.94    0.53
   1  -5   9   20.89    0.52
   1  -5   9   20.09    0.48
   1  -5   9   20.66    0.53
   1  -5   9   20.00    0.48
  -2   5  -9   17.17    0.53
  -2   5  -9   17.80    0.54
  -2   5  -9   17.99    0.50
  -2   5  -9   17.95    0.61
  -2   5  -9   17.81    0.62
   2  -5   9   18.25    0.41
   2  -5   9   17.70    0.46
   2  -5   9   18.05    0.50
   2  -5   9   17.84    0.50
   2  -5   9   17.62    0.46
  -3   5  -9    0.05    0.11
  -3   5  -9   -0.02    0.15
  -3   5  -9    0.00    0.12
   3  -5   9    0.01    0.11
   3  -5   9    0.04    0.08
   3  -5   9    0.09    0.12
   4   4  -9    3.85    0.24
   4   4  -9    4.07    0.24
   4   4  -9    4.28    0.25
   4   4  -9    3.89    0.30
   4   4  -9    4.23    0.22
  -4  -4   9    4.02    0.22
   3   4  -9    6.33    0.23
   3   4  -9    6.07    0.25
   3   4  -9    6.54    0.34
   3   4  -9    6.30    0.25
   3   4  -9    6.36    0.25
   3   4  -9    6.15    0.29
  -3  -4   9    5.98    0.26
  -3  -4   9    6.45    0.21
  -3  -4   9    6.12    0.23
   2   4  -9    2.27    0.12
   2   4  -9    2.10    0.16
   2   4  -9    2.37    0.15
   2   4  -9    2.41    0.10
   2   4  -9    2.08    0.15
   2   4  -9    2.07    0.12
   2   4  -9    2.35    0.10
  -2  -4   9    1.92    0.15
  -2  -4   9    2.20    0.12
  -2  -4   9    2.30    0.09
  -1  -4   9    2.47    0.08
  -1  -4   9    2.49    0.14
  -1  -4   9    2.51    0.09
   0   4  -9   21.62    0.54
   0  -4   9   20.57    0.51
   0  -4   9   21.16    0.53
   0  -4   9   20.90    0.55
   0  -4   9   20.63    0.51
  -1   4  -9    6.77    0.19
  -1   4  -9    6.51    0.22
  -1   4  -9    6.61    0.19
  -1   4  -9    6.17    0.27
  -1   4  -9    6.23    0.22
  -1   4  -9    6.74    0.26
   1  -4   9    6.57    0.18
   1  -4   9    6.63    0.21
   1  -4   9    6.80    0.22
   1  -4   9    6.34    0.21
   1  -4   9    6.54    0.18
  -2   4  -9    0.63    0.10
  -2   4  -9    0.66    0.09
  -2   4  -9    0.66    0.13
  -2   4  -9    0.79    0.15
  -2   4  -9    0.52    0.10
   2  -4   9    0.52    0.10
   2  -4   9    0.59    0.10
   2  -4   9    0.50    0.06
   2  -4   9    0.66    0.09
  -3   4  -9    2.40    0.18
  -3   4  -9    2.24    0.23
  -3   4  -9    2.18    0.19
   3  -4   9    2.57    0.19
   3  -4   9    2.28    0.18
   3  -4   9    2.41    0.14
   4   3  -9    2.16    0.18
   4   3  -9    2.23    0.17
   4   3  -9    2.09    0.23
   4   3  -9    2.15    0.18
  -4  -3   9    2.07    0.16
   3   3  -9    1.34    0.12
   3   3  -9    1.32    0.15
   3   3  -9    1.40    0.12
   3   3  -9    1.44    0.15
   3   3  -9    1.72    0.17
   3   3  -9    1.26    0.10
  -3  -3   9    1.31    0.10
  -3  -3   9    1.35    0.11
  -3  -3   9    1.36    0.14
   2   3  -9    5.78    0.20
   2   3  -9    5.90    0.17
   2   3  -9    5.71    0.23
   2   3  -9    5.91    0.20
   2   3  -9    6.06    0.17
   2   3  -9    6.02    0.23
  -2  -3   9    5.67    0.19
  -2  -3   9    5.74    0.16
  -2  -3   9    5.95    0.23
  -2  -3   9    5.97    0.18
  -1  -3   9   14.69    0.35
  -1  -3   9   14.33    0.42
   0   3  -9   10.43    0.28
   0  -3   9   10.54    0.27
   0  -3   9   10.87    0.32
   0  -3   9   10.99    0.29
   0  -3   9   10.62    0.27
  -1   3  -9    4.22    0.17
  -1   3  -9    4.53    0.15
  -1   3  -9    4.64    0.15
  -1   3  -9    4.43    0.17
  -1   3  -9    4.54    0.21
   1  -3   9    4.38    0.14
   1  -3   9    4.35    0.17
   1  -3   9    4.30    0.16
   1  -3   9    4.29    0.14
   1  -3   9    4.30    0.15
  -2   3  -9    6.21    0.30
  -2   3  -9    5.99    0.22
  -2   3  -9    6.50    0.31
  -2   3  -9    5.95    0.25
  -2   3  -9    5.53    0.24
  -2   3  -9    6.20    0.30
   2  -3   9    6.02    0.21
   2  -3   9    5.96    0.23
   2  -3   9    6.15    0.17
   2  -3   9    6.39    0.23
  -3   3  -9    6.80    0.37
  -3   3  -9    6.52    0.29
  -3   3  -9    6.74    0.27
   3  -3   9    6.77    0.26
   3  -3   9    5.93    0.28
   3  -3   9    6.41    0.22
   5   2  -9    0.10    0.13
   5   2  -9    0.26    0.15
  -5  -2   9    0.17    0.13
   4   2  -9   -0.14    0.10
   4   2  -9   -0.08    0.11
   4   2  -9    0.14    0.14
   4   2  -9   -0.05    0.10
   4   2  -9   -0.25    0.14
  -4  -2   9   -0.04    0.10
   3   2  -9    3.89    0.23
   3   2  -9    3.70    0.17
   3   2  -9    3.68    0.19
   3   2  -9    3.95    0.19
   3   2  -9    4.03    0.23
  -3  -2   9    4.10    0.18
  -3  -2   9    3.82    0.16
  -3  -2   9    3.92    0.18
  -3  -2   9    3.78    0.21
   2   2  -9   17.31    0.49
   2   2  -9   17.60    0.56
   2   2  -9   17.83    0.56
   2   2  -9   18.30    0.45
   2   2  -9   18.17    0.46
   2   2  -9   17.54    0.49
  -2  -2   9   17.98    0.46
  -2  -2   9   17.64    0.46
  -2  -2   9   16.46    0.50
  -2  -2   9   17.15    0.41
  -2  -2   9   17.75    0.46
   1   2  -9    6.00    0.17
   1   2  -9    5.38    0.15
  -1  -2   9    5.42    0.21
  -1  -2   9    5.44    0.15
  -1  -2   9    5.34    0.15
   0   2  -9    1.72    0.09
   0   2  -9    1.45    0.11
   0   2  -9    1.71    0.09
   0   2  -9    1.71    0.08
   0  -2   9    1.79    0.09
   0  -2   9    1.78    0.08
   0  -2   9    1.94    0.12
   0  -2   9    1.77    0.08
  -1   2  -9   13.01    0.43
  -1   2  -9   12.76    0.35
  -1   2  -9   12.91    0.35
  -1   2  -9   13.14    0.38
  -1   2  -9   12.34    0.38
  -1   2  -9   12.66    0.43
   1  -2   9   12.91    0.34
   1  -2   9   12.49    0.32
   1  -2   9   12.45    0.35
   1  -2   9   12.78    0.36
  -2   2  -9   28.22    0.78
  -2   2  -9   29.77    0.94
  -2   2  -9   29.91    0.83
  -2   2  -9   28.56    0.83
   2  -2   9   29.53    0.73
   2  -2   9   28.79    0.70
   2  -2   9   29.18    0.77
   2  -2   9   29.61    0.64
   2  -2   9   30.42    0.78
  -3   2  -9    1.58    0.20
  -3   2  -9    1.22    0.19
  -3   2  -9    0.79    0.14
  -3   2  -9    0.86    0.13
   3  -2   9    0.82    0.14
   3  -2   9    0.81    0.10
   5   1  -9    0.38    0.15
   5   1  -9    0.32    0.13
  -5  -1   9    0.25    0.13
   4   1  -9    4.08    0.24
   4   1  -9    4.08    0.21
   4   1  -9    3.96    0.27
   4   1  -9    4.15    0.23
  -4  -1   9    3.92    0.22
   3   1  -9   10.26    0.41
   3   1  -9   10.59    0.32
   3   1  -9   11.06    0.41
   3   1  -9   10.85    0.36
   3   1  -9   10.41    0.35
  -3  -1   9   10.32    0.33
  -3  -1   9   10.63    0.30
  -3  -1   9   11.05    0.31
  -3  -1   9   10.33    0.36
   2   1  -9    3.05    0.15
   2   1  -9    3.14    0.13
   2   1  -9    3.03    0.17
   2   1  -9    3.15    0.17
   2   1  -9    2.90    0.14
   2   1  -9    2.92    0.12
  -2  -1   9    3.24    0.13
  -2  -1   9    2.89    0.17
  -2  -1   9    3.03    0.12
  -2  -1   9    3.16    0.13
  -2  -1   9    3.20    0.13
  -2  -1   9    3.15    0.13
   1   1  -9   17.17    0.52
   1   1  -9   16.20    0.48
   1   1  -9   17.25    0.46
   1   1  -9   17.57    0.53
  -1  -1   9   17.33    0.48
  -1  -1   9   17.48    0.44
  -1  -1   9   16.99    0.43
   0   1  -9   15.69    0.44
   0   1  -9   15.59    0.45
   0   1  -9   16.38    0.52
   0   1  -9   15.77    0.49
   0  -1   9   15.97    0.42
   0  -1   9   15.59    0.41
   0  -1   9   16.32    0.41
   0  -1   9   16.58    0.38
   0  -1   9   16.00    0.36
  -1   1  -9    4.65    0.18
  -1   1  -9    4.82    0.19
  -1   1  -9    4.86    0.22
  -1   1  -9    5.03    0.17
  -1   1  -9    5.29    0.20
  -1   1  -9    4.67    0.22
   1  -1   9    4.90    0.16
   1  -1   9    4.56    0.18
   1  -1   9    4.75    0.18
   1  -1   9    4.79    0.17
   1  -1   9    4.94    0.18
  -2   1  -9    0.00    0.09
  -2   1  -9    0.17    0.12
  -2   1  -9    0.30    0.17
  -2   1  -9   -0.02    0.09
  -2   1  -9   -0.05    0.08
   2  -1   9    0.08    0.06
   2  -1   9    0.06    0.07
   2  -1   9   -0.03    0.08
   2  -1   9    0.14    0.10
  -3   1  -9    5.35    0.25
  -3   1  -9    5.21    0.27
  -3   1  -9    6.17    0.35
  -3   1  -9    5.35    0.35
   3  -1   9    5.38    0.26
   3  -1   9    4.70    0.20
   5   0  -9    0.47    0.16
   5   0  -9    0.35    0.13
  -5   0   9    0.62    0.15
   4   0  -9    2.27    0.18
   4   0  -9    2.25    0.19
   4   0  -9    2.39    0.19
   4   0  -9    2.32    0.22
  -4   0   9    2.09    0.17
  -4   0   9    2.26    0.15
   3   0  -9    0.16    0.11
   3   0  -9    0.01    0.12
   3   0  -9    0.04    0.09
   3   0  -9    0.08    0.08
   3   0  -9    0.13    0.09
  -3   0   9    0.05    0.07
  -3   0   9    0.15    0.09
  -3   0   9    0.02    0.07
  -3   0   9    0.12    0.08
   2   0  -9    9.19    0.29
   2   0  -9    9.22    0.27
   2   0  -9    9.38    0.30
   2   0  -9    9.22    0.28
   2   0  -9    9.10    0.34
   2   0  -9    9.12    0.34
  -2   0   9    8.93    0.31
  -2   0   9    9.45    0.27
  -2   0   9    9.66    0.24
  -2   0   9    8.86    0.27
  -2   0   9    8.91    0.25
   1   0  -9   62.73    1.70
   1   0  -9   66.32    1.58
   1   0  -9   63.77    1.67
   1   0  -9   64.16    1.89
   1   0  -9   65.46    1.58
   1   0  -9   66.18    1.90
  -1   0   9   63.63    1.57
  -1   0   9   65.78    1.43
  -1   0   9   66.61    1.59
  -1   0   9   64.06    1.59
  -1   0   9   64.15    1.57
  -1   0   9   62.22    1.60
   0   0  -9    0.35    0.05
   0   0  -9    0.37    0.08
   0   0  -9    0.31    0.06
   0   0  -9    0.35    0.05
   0   0  -9    0.40    0.06
   0   0  -9    0.34    0.08
   0   0  -9    0.40    0.11
   0   0   9    0.30    0.05
   0   0   9    0.41    0.06
   0   0   9    0.32    0.06
   0   0   9    0.32    0.06
  -1   0  -9    9.81    0.31
  -1   0  -9    9.60    0.36
  -1   0  -9    9.41    0.29
  -1   0  -9    9.51    0.31
  -1   0  -9    9.36    0.30
  -1   0  -9    9.66    0.37
   1   0   9    9.56    0.21
   1   0   9    9.33    0.30
   1   0   9    9.23    0.29
   1   0   9    9.70    0.28
  -2   0  -9   13.10    0.42
  -2   0  -9   12.43    0.39
  -2   0  -9   12.06    0.41
  -2   0  -9   12.81    0.48
   2   0   9   12.49    0.39
   2   0   9   11.89    0.35
   2   0   9   12.58    0.31
   2   0   9   11.83    0.42
  -3   0  -9    3.47    0.22
  -3   0  -9    3.80    0.24
   3   0   9    3.80    0.18
   3   0   9    3.72    0.22
   5  -1  -9    0.17    0.13
  -5   1   9    0.04    0.13
   4  -1  -9    0.51    0.11
   4  -1  -9    0.43    0.13
   4  -1  -9    0.44    0.17
  -4   1   9    0.31    0.10
  -4   1   9    0.54    0.12
   3  -1  -9   12.09    0.39
   3  -1  -9   11.22    0.45
   3  -1  -9   11.26    0.35
   3  -1  -9   11.55    0.38
   3  -1  -9   11.32    0.44
  -3   1   9   11.54    0.33
  -3   1   9   11.53    0.33
  -3   1   9   11.90    0.32
  -3   1   9   11.17    0.38
  -3   1   9   11.54    0.36
   2  -1  -9   17.33    0.57
   2  -1  -9   16.80    0.48
   2  -1  -9   17.09    0.46
   2  -1  -9   17.25    0.57
   2  -1  -9   17.07    0.50
   2  -1  -9   17.09    0.50
  -2   1   9   17.11    0.44
  -2   1   9   16.98    0.46
  -2   1   9   17.06    0.47
  -2   1   9   16.22    0.50
  -2   1   9   17.32    0.42
  -2   1   9   17.19    0.41
   1  -1  -9    7.42    0.29
   1  -1  -9    7.46    0.29
   1  -1  -9    7.23    0.22
   1  -1  -9    7.45    0.30
   1  -1  -9    7.04    0.22
   1  -1  -9    7.32    0.24
  -1   1   9    6.91    0.22
  -1   1   9    7.84    0.26
  -1   1   9    7.20    0.20
  -1   1   9    7.04    0.20
  -1   1   9    7.56    0.24
   0  -1  -9    4.35    0.16
   0  -1  -9    4.53    0.21
   0  -1  -9    4.36    0.20
   0  -1  -9    4.22    0.17
   0  -1  -9    4.55    0.18
   0  -1  -9    3.95    0.25
   0   1   9    4.40    0.18
   0   1   9    4.40    0.15
   0   1   9    4.23    0.18
   0   1   9    4.05    0.17
  -1  -1  -9   20.48    0.62
  -1  -1  -9   21.55    0.60
  -1  -1  -9   21.51    0.70
  -1  -1  -9   21.44    0.71
  -1  -1  -9   21.57    0.61
   1   1   9   21.32    0.58
   1   1   9   21.48    0.46
   1   1   9   20.57    0.54
   1   1   9   21.01    0.59
  -2  -1  -9   12.49    0.40
  -2  -1  -9   11.99    0.48
  -2  -1  -9   12.35    0.42
  -2  -1  -9   12.37    0.42
   2   1   9   11.92    0.31
   2   1   9   11.84    0.36
   2   1   9   11.83    0.39
  -3  -1  -9    0.08    0.21
  -3  -1  -9   -0.14    0.12
  -3  -1  -9   -0.11    0.11
   3   1   9   -0.05    0.08
   3   1   9    0.12    0.12
   5  -2  -9    0.07    0.13
  -5   2   9    0.08    0.14
   4  -2  -9    3.95    0.22
   4  -2  -9    3.56    0.30
   4  -2  -9    3.99    0.24
  -4   2   9    3.74    0.19
  -4   2   9    3.91    0.22
   3  -2  -9    5.48    0.29
   3  -2  -9    5.16    0.24
   3  -2  -9    5.39    0.23
   3  -2  -9    5.84    0.25
   3  -2  -9    5.32    0.29
  -3   2   9    5.41    0.20
  -3   2   9    5.43    0.21
  -3   2   9    5.82    0.23
  -3   2   9    5.70    0.25
   2  -2  -9    0.46    0.09
   2  -2  -9    0.53    0.13
   2  -2  -9    0.44    0.12
   2  -2  -9    0.43    0.08
   2  -2  -9    0.59    0.10
  -2   2   9    0.39    0.08
  -2   2   9    0.45    0.09
  -2   2   9    0.45    0.09
  -2   2   9    0.52    0.07
  -2   2   9    0.37    0.09
  -2   2   9    0.42    0.04
   1  -2  -9   12.49    0.44
   1  -2  -9   12.15    0.35
   1  -2  -9   12.43    0.45
   1  -2  -9   12.55    0.36
   1  -2  -9   11.80    0.38
   1  -2  -9   12.76    0.42
  -1   2   9   12.07    0.31
  -1   2   9   12.36    0.37
  -1   2   9   11.55    0.35
  -1   2   9   11.65    0.32
   0  -2  -9    2.46    0.15
   0  -2  -9    2.54    0.17
   0  -2  -9    2.63    0.18
   0  -2  -9    2.48    0.21
   0  -2  -9    2.82    0.16
   0  -2  -9    2.41    0.13
   0   2   9    2.51    0.13
   0   2   9    2.76    0.16
   0   2   9    2.54    0.15
   0   2   9    2.42    0.08
  -1  -2  -9    6.14    0.27
  -1  -2  -9    6.21    0.26
  -1  -2  -9    6.43    0.26
  -1  -2  -9    6.70    0.31
  -1  -2  -9    6.31    0.32
   1   2   9    6.64    0.18
   1   2   9    6.59    0.25
   1   2   9    5.62    0.24
  -2  -2  -9    0.82    0.13
  -2  -2  -9    0.74    0.12
  -2  -2  -9    0.85    0.13
  -2  -2  -9    0.70    0.17
  -2  -2  -9    0.51    0.14
   2   2   9    0.87    0.09
   2   2   9    0.82    0.12
   2   2   9    0.90    0.12
  -3  -2  -9    4.05    0.25
  -3  -2  -9    3.77    0.26
   3   2   9    3.73    0.18
   3   2   9    3.79    0.23
   5  -3  -9    0.22    0.15
  -5   3   9    0.04    0.14
   4  -3  -9    0.82    0.14
   4  -3  -9    1.11    0.16
   4  -3  -9    0.48    0.20
  -4   3   9    0.93    0.15
  -4   3   9    1.11    0.12
   3  -3  -9    0.15    0.13
   3  -3  -9    0.21    0.15
   3  -3  -9    0.12    0.10
   3  -3  -9    0.15    0.09
   3  -3  -9    0.17    0.10
  -3   3   9    0.20    0.10
  -3   3   9    0.15    0.10
  -3   3   9    0.17    0.08
   2  -3  -9   15.68    0.59
   2  -3  -9   15.89    0.46
   2  -3  -9   15.70    0.55
   2  -3  -9   15.77    0.49
   2  -3  -9   16.47    0.50
  -2   3   9   16.40    0.37
  -2   3   9   16.30    0.41
  -2   3   9   16.26    0.46
  -2   3   9   16.23    0.47
  -2   3   9   15.15    0.48
  -2   3   9   15.77    0.44
   1  -3  -9   28.06    0.75
   1  -3  -9   27.88    0.81
   1  -3  -9   28.38    0.91
   1  -3  -9   27.77    0.75
   1  -3  -9   30.88    0.83
   1  -3  -9   28.00    0.75
   1  -3  -9   27.95    0.91
  -1   3   9   28.65    0.68
  -1   3   9   28.32    0.61
  -1   3   9   27.47    0.68
  -1   3   9   27.58    0.75
  -1   3   9   26.72    0.76
   0  -3  -9    0.65    0.12
   0  -3  -9    0.54    0.11
   0  -3  -9    0.62    0.16
   0  -3  -9    0.56    0.10
   0  -3  -9    0.82    0.11
   0   3   9    0.47    0.05
   0   3   9    0.66    0.09
   0   3   9    0.43    0.10
   0   3   9    0.62    0.10
  -1  -3  -9    7.16    0.30
  -1  -3  -9    6.92    0.30
  -1  -3  -9    7.57    0.35
  -1  -3  -9    7.58    0.37
  -1  -3  -9    7.90    0.31
  -1  -3  -9    6.85    0.31
   1   3   9    7.76    0.21
   1   3   9    7.46    0.28
   1   3   9    7.55    0.28
  -2  -3  -9   10.56    0.41
  -2  -3  -9   11.30    0.40
  -2  -3  -9   11.36    0.49
   2   3   9   10.97    0.30
   2   3   9   10.39    0.36
   2   3   9   10.71    0.38
  -3  -3  -9    3.49    0.25
   3   3   9    3.52    0.24
   3   3   9    3.44    0.18
   4  -4  -9    0.43    0.13
   4  -4  -9    0.41    0.19
   4  -4  -9    0.55    0.15
  -4   4   9    0.61    0.14
  -4   4   9    0.35    0.12
   3  -4  -9   16.94    0.55
   3  -4  -9   17.68    0.62
   3  -4  -9   17.15    0.64
   3  -4  -9   16.72    0.51
   3  -4  -9   17.39    0.55
  -3   4   9   17.11    0.51
  -3   4   9   16.31    0.46
   2  -4  -9    2.26    0.15
   2  -4  -9    1.93    0.21
   2  -4  -9    2.04    0.17
   2  -4  -9    2.71    0.23
   2  -4  -9    2.28    0.18
  -2   4   9    1.69    0.15
  -2   4   9    2.32    0.17
  -2   4   9    2.08    0.15
  -2   4   9    2.20    0.14
  -2   4   9    2.21    0.15
  -2   4   9    2.11    0.12
   1  -4  -9    0.78    0.14
   1  -4  -9    0.64    0.13
   1  -4  -9    0.71    0.13
   1  -4  -9    0.67    0.10
   1  -4  -9    0.60    0.15
  -1   4   9    0.64    0.06
  -1   4   9    0.51    0.12
  -1   4   9    0.67    0.09
  -1   4   9    0.64    0.09
  -1   4   9    0.71    0.11
   0  -4  -9    5.55    0.25
   0  -4  -9    4.88    0.30
   0  -4  -9    5.38    0.28
   0  -4  -9    5.34    0.25
   0  -4  -9    5.08    0.23
   0   4   9    4.67    0.23
   0   4   9    4.88    0.16
   0   4   9    5.06    0.21
   0   4   9    5.19    0.23
   0   4   9    5.10    0.20
  -1  -4  -9   10.36    0.38
  -1  -4  -9    9.23    0.37
  -1  -4  -9   10.12    0.37
  -1  -4  -9    9.44    0.46
  -1  -4  -9   10.03    0.43
  -1  -4  -9    9.93    0.38
   1   4   9    9.93    0.34
   1   4   9   10.19    0.27
   1   4   9    9.61    0.35
  -2  -4  -9    3.54    0.24
  -2  -4  -9    3.71    0.31
  -2  -4  -9    2.95    0.23
   2   4   9    3.16    0.22
   2   4   9    3.41    0.17
   2   4   9    3.47    0.22
  -3  -4  -9    0.55    0.15
   3   4   9    0.51    0.11
   3   4   9    0.48    0.15
   4  -5  -9    2.16    0.21
   4  -5  -9    1.80    0.18
  -4   5   9    1.94    0.19
   3  -5  -9    1.29    0.14
   3  -5  -9    1.19    0.16
   3  -5  -9    1.44    0.20
  -3   5   9    1.29    0.15
  -3   5   9    1.31    0.13
   2  -5  -9    4.41    0.27
   2  -5  -9    4.14    0.21
   2  -5  -9    3.88    0.28
   2  -5  -9    4.14    0.23
   2  -5  -9    3.46    0.30
  -2   5   9    4.27    0.19
  -2   5   9    4.15    0.23
   1  -5  -9    7.34    0.33
   1  -5  -9    6.79    0.35
   1  -5  -9    7.28    0.35
   1  -5  -9    6.95    0.27
   1  -5  -9    6.10    0.31
  -1   5   9    6.89    0.28
  -1   5   9    6.82    0.24
  -1   5   9    7.05    0.21
  -1   5   9    6.95    0.30
   0  -5  -9    4.36    0.28
   0  -5  -9    4.25    0.25
   0  -5  -9    4.45    0.24
   0  -5  -9    4.03    0.30
   0  -5  -9    4.43    0.23
   0   5   9    4.28    0.16
   0   5   9    4.25    0.20
   0   5   9    3.87    0.22
  -1  -5  -9    0.19    0.12
  -1  -5  -9    0.39    0.18
  -1  -5  -9    0.30    0.12
   1   5   9    0.47    0.08
   1   5   9    0.42    0.12
   1   5   9    0.31    0.12
  -2  -5  -9    2.39    0.21
  -2  -5  -9    2.16    0.22
   2   5   9    2.33    0.16
   2   5   9    2.38    0.20
   4  -6  -9    0.26    0.14
  -4   6   9    0.05    0.14
   3  -6  -9    0.94    0.14
   3  -6  -9    0.33    0.20
   3  -6  -9    0.81    0.16
  -3   6   9    0.84    0.15
  -3   6   9    0.67    0.12
   2  -6  -9    7.50    0.34
   2  -6  -9    7.80    0.39
   2  -6  -9    7.59    0.30
  -2   6   9    6.86    0.32
  -2   6   9    7.15    0.27
   1  -6  -9    5.83    0.30
   1  -6  -9    5.06    0.29
   1  -6  -9    5.83    0.34
   1  -6  -9    5.39    0.26
  -1   6   9    5.96    0.20
  -1   6   9    5.68    0.28
  -1   6   9    5.36    0.23
   0  -6  -9    0.26    0.12
   0  -6  -9    0.14    0.17
   0  -6  -9    0.16    0.11
   0   6   9    0.23    0.11
   0   6   9    0.13    0.10
   0   6   9    0.11    0.07
  -1  -6  -9    2.17    0.19
  -1  -6  -9    2.60    0.27
  -1  -6  -9    2.32    0.21
   1   6   9    2.17    0.15
   1   6   9    2.59    0.19
   1   6   9    2.11    0.19
  -2  -6  -9    4.00    0.30
   2   6   9    4.48    0.27
   2   6   9    4.39    0.20
   4  -7  -9    0.55    0.16
  -4   7   9    0.24    0.16
   3  -7  -9    4.36    0.26
   3  -7  -9    4.51    0.30
  -3   7   9    4.36    0.28
   2  -7  -9    3.76    0.24
   2  -7  -9    3.98    0.33
   2  -7  -9    3.97    0.28
  -2   7   9    3.36    0.26
  -2   7   9    3.86    0.21
   1  -7  -9   -0.08    0.17
   1  -7  -9   -0.09    0.11
   1  -7  -9   -0.05    0.13
  -1   7   9    0.04    0.10
  -1   7   9    0.09    0.13
  -1   7   9   -0.08    0.07
   0  -7  -9    5.12    0.28
   0  -7  -9    5.16    0.33
   0  -7  -9    4.84    0.26
   0   7   9    4.68    0.26
   0   7   9    4.88    0.19
   0   7   9    4.98    0.23
  -1  -7  -9    2.93    0.22
  -1  -7  -9    3.16    0.26
   1   7   9    3.16    0.17
   1   7   9    3.11    0.24
  -2  -7  -9    0.41    0.17
   2   7   9    0.53    0.11
   2   7   9    0.34    0.16
   3  -8  -9    0.58    0.16
  -3   8   9    0.83    0.19
   2  -8  -9    1.67    0.19
   2  -8  -9    1.30    0.21
  -2   8   9    1.57    0.21
   1  -8  -9    6.17    0.33
   1  -8  -9    5.27    0.28
  -1   8   9    5.51    0.30
   0  -8  -9    2.35    0.20
   0  -8  -9    2.53    0.22
   0   8   9    2.39    0.16
   0   8   9    2.19    0.20
  -1  -8  -9    0.10    0.13
   1   8   9    0.06    0.10
   1   8   9    0.01    0.13
   3  -9  -9    2.75    0.24
  -3   9   9    2.30    0.26
   2  -9  -9    2.82    0.24
  -2   9   9    2.96    0.27
   1  -9  -9    1.60    0.19
  -1   9   9    1.56    0.19
   0  -9  -9   -0.03    0.12
   0   9   9   -0.05    0.13
   1 -10  -9    0.85    0.17
  -1  10   9    0.70    0.18
   1  11 -10    4.53    0.24
   1  11 -10    4.49    0.33
   1  11 -10    5.35    0.32
   1  11 -10    4.50    0.25
   1  11 -10    4.68    0.19
  -1 -11  10    4.31    0.23
   0  11 -10    0.61    0.20
   0  11 -10    0.56    0.17
   0  11 -10    0.64    0.13
   0  11 -10    0.65    0.09
   0  11 -10    0.49    0.12
   0 -11  10    0.37    0.11
  -1  11 -10    0.87    0.21
  -1  11 -10    0.73    0.15
  -1  11 -10    1.16    0.20
  -1  11 -10    0.99    0.11
  -1  11 -10    1.09    0.14
   1 -11  10    1.19    0.14
   2  10 -10   -0.05    0.17
   2  10 -10   -0.03    0.17
   2  10 -10    0.23    0.11
   2  10 -10    0.18    0.13
   2  10 -10    0.23    0.09
  -2 -10  10    0.23    0.13
   1  10 -10    0.18    0.15
   1  10 -10    0.02    0.10
   1  10 -10    0.10    0.10
   1  10 -10   -0.02    0.14
   1  10 -10    0.01    0.07
  -1 -10  10    0.17    0.10
   0  10 -10    2.26    0.20
   0  10 -10    2.26    0.12
   0  10 -10    1.98    0.16
   0  10 -10    1.99    0.22
   0  10 -10    2.50    0.18
   0 -10  10    2.20    0.16
  -1  10 -10    3.72    0.27
  -1  10 -10    3.55    0.21
  -1  10 -10    3.39    0.30
  -1  10 -10    3.90    0.17
  -1  10 -10    3.92    0.23
   1 -10  10    3.84    0.20
  -2  10 -10    0.57    0.18
  -2  10 -10    0.45    0.13
  -2  10 -10    0.61    0.14
  -2  10 -10    0.40    0.11
   2 -10  10    0.45    0.11
   2 -10  10    0.55    0.13
   3   9 -10    1.29    0.16
   3   9 -10    1.22    0.21
   3   9 -10    1.20    0.14
   3   9 -10    1.00    0.17
  -3  -9  10    1.25    0.16
   2   9 -10    0.57    0.14
   2   9 -10    0.80    0.18
   2   9 -10    0.92    0.15
   2   9 -10    0.71    0.09
   2   9 -10    0.58    0.11
  -2  -9  10    0.54    0.14
  -2  -9  10    0.74    0.13
   1   9 -10    2.80    0.11
   1   9 -10    2.62    0.16
   1   9 -10    2.99    0.24
   1   9 -10    3.22    0.17
   1   9 -10    2.53    0.24
  -1  -9  10    2.75    0.17
   0   9 -10    8.31    0.35
   0   9 -10    8.14    0.38
   0   9 -10    8.27    0.28
   0   9 -10    8.23    0.30
   0  -9  10    8.17    0.27
   0  -9  10    9.10    0.27
  -1   9 -10    0.89    0.17
  -1   9 -10    0.83    0.13
  -1   9 -10    0.70    0.14
  -1   9 -10    0.77    0.11
  -1   9 -10    0.92    0.08
   1  -9  10    0.81    0.14
   1  -9  10    0.86    0.11
  -2   9 -10    1.07    0.12
  -2   9 -10    1.25    0.15
  -2   9 -10    0.99    0.20
  -2   9 -10    0.95    0.18
  -2   9 -10    1.18    0.15
   2  -9  10    1.39    0.14
   3   8 -10    0.16    0.12
   3   8 -10    0.09    0.15
   3   8 -10    0.12    0.14
   3   8 -10    0.06    0.11
   3   8 -10    0.12    0.11
  -3  -8  10    0.07    0.11
   2   8 -10    3.76    0.15
   2   8 -10    3.14    0.23
   2   8 -10    3.51    0.23
   2   8 -10    3.81    0.26
   2   8 -10    3.64    0.19
  -2  -8  10    3.27    0.20
  -2  -8  10    3.33    0.22
   1   8 -10    4.45    0.25
   1   8 -10    4.38    0.18
   1   8 -10    4.52    0.24
   1   8 -10    4.36    0.19
  -1  -8  10    4.61    0.19
  -1  -8  10    4.34    0.16
  -1  -8  10    4.47    0.20
   0   8 -10    0.42    0.11
   0   8 -10    0.29    0.08
   0   8 -10    0.19    0.14
   0   8 -10    0.21    0.07
   0  -8  10    0.18    0.07
   0  -8  10    0.32    0.07
  -1   8 -10    3.45    0.13
  -1   8 -10    3.18    0.19
  -1   8 -10    3.33    0.22
  -1   8 -10    3.34    0.17
  -1   8 -10    3.13    0.25
   1  -8  10    3.44    0.17
   1  -8  10    3.55    0.17
   1  -8  10    3.59    0.20
  -2   8 -10    9.85    0.44
  -2   8 -10    9.57    0.32
  -2   8 -10    9.91    0.36
  -2   8 -10   10.12    0.36
  -2   8 -10    9.97    0.43
   2  -8  10   10.54    0.34
   3   7 -10    1.87    0.16
   3   7 -10    2.20    0.19
   3   7 -10    2.24    0.21
   3   7 -10    2.12    0.16
   3   7 -10    1.94    0.20
  -3  -7  10    2.21    0.17
   2   7 -10    1.69    0.09
   2   7 -10    1.54    0.16
   2   7 -10    1.49    0.12
   2   7 -10    1.32    0.14
   2   7 -10    1.55    0.15
  -2  -7  10    1.58    0.12
  -2  -7  10    1.43    0.14
  -2  -7  10    1.47    0.10
   1   7 -10    1.22    0.13
   1   7 -10    1.29    0.10
   1   7 -10    1.21    0.11
   1   7 -10    1.37    0.10
  -1  -7  10    1.17    0.09
  -1  -7  10    1.30    0.08
  -1  -7  10    1.41    0.12
   0   7 -10   11.36    0.41
   0   7 -10   10.82    0.33
   0   7 -10   10.97    0.38
   0   7 -10   10.94    0.32
   0  -7  10   11.48    0.31
   0  -7  10   11.05    0.28
  -1   7 -10   11.80    0.45
  -1   7 -10   12.00    0.44
  -1   7 -10   12.29    0.38
  -1   7 -10   12.34    0.38
  -1   7 -10   12.80    0.32
   1  -7  10   12.48    0.39
   1  -7  10   12.37    0.33
   1  -7  10   12.57    0.36
  -2   7 -10    0.09    0.10
  -2   7 -10    0.01    0.13
  -2   7 -10    0.03    0.08
  -2   7 -10    0.06    0.10
  -2   7 -10    0.05    0.14
   2  -7  10    0.17    0.11
   2  -7  10    0.10    0.09
  -3   7 -10    0.29    0.18
  -3   7 -10    0.37    0.12
  -3   7 -10    0.35    0.14
   3  -7  10    0.42    0.10
   3  -7  10    0.36    0.13
   4   6 -10    1.13    0.14
   4   6 -10    1.05    0.14
   4   6 -10    0.92    0.19
   4   6 -10    0.95    0.16
  -4  -6  10    1.04    0.14
   3   6 -10    0.20    0.09
   3   6 -10    0.00    0.14
   3   6 -10   -0.06    0.09
   3   6 -10    0.07    0.09
   3   6 -10    0.13    0.13
  -3  -6  10    0.12    0.09
   2   6 -10    1.07    0.10
   2   6 -10    0.99    0.09
   2   6 -10    1.15    0.13
   2   6 -10    0.61    0.11
  -2  -6  10    1.21    0.10
  -2  -6  10    1.11    0.08
  -2  -6  10    1.24    0.12
   1   6 -10   11.34    0.32
   1   6 -10   11.57    0.32
   1   6 -10   12.12    0.38
   1   6 -10   12.11    0.40
  -1  -6  10   11.52    0.31
  -1  -6  10   11.68    0.27
  -1  -6  10   12.12    0.36
  -1  -6  10   11.62    0.27
   0   6 -10    6.79    0.21
   0   6 -10    6.67    0.25
   0   6 -10    6.75    0.20
   0   6 -10    6.61    0.27
   0  -6  10    7.17    0.23
   0  -6  10    7.17    0.17
   0  -6  10    6.89    0.20
   0  -6  10    6.96    0.17
  -1   6 -10   -0.02    0.07
  -1   6 -10   -0.08    0.11
  -1   6 -10    0.10    0.07
  -1   6 -10    0.10    0.10
   1  -6  10   -0.01    0.06
   1  -6  10    0.18    0.09
   1  -6  10   -0.04    0.06
  -2   6 -10    5.09    0.29
  -2   6 -10    4.74    0.22
  -2   6 -10    4.62    0.22
  -2   6 -10    4.96    0.29
  -2   6 -10    4.85    0.20
   2  -6  10    4.59    0.22
   2  -6  10    5.09    0.22
  -3   6 -10    0.40    0.17
  -3   6 -10    0.15    0.13
  -3   6 -10    0.33    0.11
   3  -6  10    0.27    0.12
   3  -6  10    0.36    0.09
   4   5 -10    0.30    0.12
   4   5 -10    0.23    0.11
   4   5 -10    0.08    0.17
  -4  -5  10    0.09    0.11
   3   5 -10    1.82    0.13
   3   5 -10    1.75    0.14
   3   5 -10    1.77    0.17
   3   5 -10    1.61    0.13
   3   5 -10    1.45    0.22
   3   5 -10    1.76    0.14
  -3  -5  10    1.87    0.15
   2   5 -10    6.92    0.23
   2   5 -10    6.86    0.28
   2   5 -10    7.24    0.23
   2   5 -10    7.35    0.30
  -2  -5  10    7.19    0.22
  -2  -5  10    6.89    0.19
  -2  -5  10    7.05    0.27
   1   5 -10    3.21    0.15
   1   5 -10    3.03    0.14
  -1  -5  10    3.23    0.10
  -1  -5  10    3.71    0.17
  -1  -5  10    3.54    0.10
   0   5 -10    5.22    0.19
   0   5 -10    5.42    0.21
   0  -5  10    5.37    0.20
   0  -5  10    5.42    0.15
   0  -5  10    5.73    0.20
  -1   5 -10    4.90    0.19
  -1   5 -10    4.84    0.19
  -1   5 -10    4.94    0.24
  -1   5 -10    4.99    0.23
   1  -5  10    5.42    0.18
   1  -5  10    4.88    0.16
   1  -5  10    5.01    0.16
   1  -5  10    5.15    0.20
  -2   5 -10    5.58    0.31
  -2   5 -10    6.23    0.25
  -2   5 -10    5.59    0.24
  -2   5 -10    5.93    0.30
  -2   5 -10    6.10    0.22
   2  -5  10    6.12    0.24
   2  -5  10    5.58    0.24
  -3   5 -10    0.51    0.18
  -3   5 -10    0.69    0.12
  -3   5 -10    0.70    0.14
   3  -5  10    0.50    0.09
   3  -5  10    0.52    0.13
   4   4 -10    0.67    0.12
   4   4 -10    0.75    0.18
   4   4 -10    0.91    0.14
   4   4 -10    0.95    0.14
   4   4 -10    0.76    0.14
  -4  -4  10    0.78    0.13
   3   4 -10    5.93    0.22
   3   4 -10    6.14    0.24
   3   4 -10    7.25    0.33
   3   4 -10    6.16    0.30
   3   4 -10    6.06    0.25
   3   4 -10    5.73    0.24
  -3  -4  10    5.70    0.26
  -3  -4  10    6.32    0.23
  -3  -4  10    6.21    0.21
   2   4 -10    0.39    0.08
   2   4 -10    0.41    0.07
   2   4 -10    0.41    0.09
   2   4 -10    0.37    0.07
  -2  -4  10    0.43    0.10
  -2  -4  10    0.47    0.05
  -2  -4  10    0.39    0.06
  -1  -4  10    2.68    0.15
   0   4 -10   10.68    0.34
   0   4 -10   10.44    0.33
   0  -4  10   10.95    0.27
   0  -4  10   11.62    0.31
   0  -4  10   11.22    0.33
   0  -4  10   11.01    0.27
  -1   4 -10   28.55    0.78
  -1   4 -10   28.50    0.78
  -1   4 -10   27.76    0.90
  -1   4 -10   28.11    0.89
   1  -4  10   30.07    0.72
   1  -4  10   29.84    0.74
   1  -4  10   29.49    0.73
   1  -4  10   29.46    0.67
   1  -4  10   28.90    0.67
  -2   4 -10    0.30    0.08
  -2   4 -10    0.19    0.13
  -2   4 -10    0.44    0.10
  -2   4 -10    0.28    0.14
  -2   4 -10    0.15    0.10
   2  -4  10    0.31    0.10
   2  -4  10    0.40    0.10
  -3   4 -10    4.37    0.25
  -3   4 -10    4.79    0.33
  -3   4 -10    4.32    0.22
   3  -4  10    4.90    0.25
   3  -4  10    4.59    0.19
   4   3 -10    2.61    0.21
   4   3 -10    2.42    0.24
   4   3 -10    2.55    0.17
   4   3 -10    2.79    0.20
  -4  -3  10    2.93    0.19
   3   3 -10    0.06    0.09
   3   3 -10    0.22    0.11
   3   3 -10    0.26    0.09
   3   3 -10    0.10    0.12
   3   3 -10    0.21    0.07
  -3  -3  10    0.15    0.08
  -3  -3  10    0.23    0.07
  -3  -3  10    0.27    0.10
   2   3 -10    6.71    0.25
   2   3 -10    6.62    0.22
   2   3 -10    6.39    0.21
   2   3 -10    6.84    0.26
  -2  -3  10    7.01    0.21
  -2  -3  10    6.72    0.26
  -2  -3  10    6.88    0.18
  -1  -3  10   15.14    0.44
   0   3 -10    3.09    0.13
   0   3 -10    3.00    0.13
   0  -3  10    3.21    0.10
   0  -3  10    3.15    0.10
   0  -3  10    3.31    0.15
   0  -3  10    3.30    0.13
  -1   3 -10    0.00    0.04
  -1   3 -10   -0.07    0.06
  -1   3 -10    0.06    0.06
  -1   3 -10   -0.04    0.09
  -1   3 -10   -0.02    0.05
  -1   3 -10    0.03    0.12
   1  -3  10    0.01    0.06
   1  -3  10    0.00    0.07
   1  -3  10    0.12    0.07
   1  -3  10    0.03    0.05
   1  -3  10    0.02    0.05
  -2   3 -10    8.71    0.32
  -2   3 -10    9.19    0.33
  -2   3 -10    9.21    0.39
  -2   3 -10    9.12    0.30
  -2   3 -10    9.40    0.40
   2  -3  10    9.37    0.23
   2  -3  10    9.50    0.31
   2  -3  10    9.51    0.30
  -3   3 -10    2.44    0.20
  -3   3 -10    2.21    0.24
  -3   3 -10    2.46    0.19
   3  -3  10    2.50    0.15
   3  -3  10    2.03    0.17
   4   2 -10    0.00    0.10
   4   2 -10    0.04    0.15
   4   2 -10    0.00    0.12
   4   2 -10   -0.02    0.11
  -4  -2  10   -0.09    0.10
   3   2 -10    4.33    0.18
   3   2 -10    4.24    0.20
   3   2 -10    4.10    0.19
   3   2 -10    4.30    0.23
   3   2 -10    4.34    0.25
  -3  -2  10    4.25    0.18
  -3  -2  10    4.05    0.22
  -3  -2  10    4.19    0.17
   2   2 -10   29.18    0.77
   2   2 -10   28.79    0.88
   2   2 -10   28.06    0.77
   2   2 -10   28.13    0.88
  -2  -2  10   29.68    0.72
  -2  -2  10   28.61    0.77
  -2  -2  10   28.81    0.66
   1   2 -10    1.51    0.08
   1   2 -10    1.55    0.08
  -1  -2  10    1.83    0.13
  -1  -2  10    1.47    0.06
  -1  -2  10    1.46    0.08
   0   2 -10   11.42    0.31
   0   2 -10   10.99    0.32
   0   2 -10   11.24    0.36
   0   2 -10   11.17    0.38
   0  -2  10   11.29    0.30
   0  -2  10   11.46    0.30
   0  -2  10   11.62    0.29
   0  -2  10   11.37    0.35
  -1   2 -10   17.38    0.49
  -1   2 -10   17.10    0.56
  -1   2 -10   17.27    0.46
  -1   2 -10   16.53    0.49
  -1   2 -10   16.83    0.44
  -1   2 -10   16.82    0.56
   1  -2  10   17.11    0.46
   1  -2  10   17.15    0.44
   1  -2  10   16.96    0.42
  -2   2 -10    4.59    0.20
  -2   2 -10    4.52    0.22
  -2   2 -10    4.64    0.22
  -2   2 -10    4.98    0.27
   2  -2  10    4.58    0.22
   2  -2  10    4.42    0.19
   2  -2  10    4.77    0.15
  -3   2 -10   -0.07    0.10
  -3   2 -10   -0.11    0.16
  -3   2 -10    0.48    0.19
  -3   2 -10   -0.06    0.12
   3  -2  10   -0.04    0.08
   3  -2  10    0.04    0.11
   4   1 -10    3.81    0.23
   4   1 -10    3.72    0.20
   4   1 -10    3.90    0.27
   4   1 -10    4.19    0.24
  -4  -1  10    3.64    0.20
   3   1 -10    6.15    0.22
   3   1 -10    6.21    0.25
   3   1 -10    6.41    0.29
   3   1 -10    6.23    0.29
   3   1 -10    6.52    0.25
  -3  -1  10    6.26    0.23
  -3  -1  10    6.19    0.21
  -3  -1  10    6.18    0.27
   2   1 -10    6.22    0.18
   2   1 -10    6.08    0.22
   2   1 -10    5.90    0.21
   2   1 -10    6.04    0.19
   2   1 -10    5.97    0.25
   2   1 -10    6.09    0.25
  -2  -1  10    6.16    0.25
  -2  -1  10    6.30    0.18
  -2  -1  10    6.26    0.19
  -2  -1  10    6.29    0.20
   1   1 -10    1.00    0.08
   1   1 -10    1.12    0.09
   1   1 -10    0.92    0.09
   1   1 -10    0.88    0.07
  -1  -1  10    0.87    0.04
  -1  -1  10    1.16    0.08
  -1  -1  10    0.89    0.11
  -1  -1  10    0.99    0.08
   0   1 -10   26.89    0.86
   0   1 -10   28.36    0.84
   0   1 -10   27.41    0.74
   0   1 -10   27.12    0.75
   0  -1  10   28.50    0.71
   0  -1  10   28.77    0.64
   0  -1  10   27.30    0.69
   0  -1  10   27.98    0.63
  -1   1 -10   15.82    0.45
  -1   1 -10   15.92    0.53
  -1   1 -10   16.03    0.54
  -1   1 -10   15.88    0.46
  -1   1 -10   15.52    0.47
   1  -1  10   15.49    0.44
   1  -1  10   15.95    0.41
  -2   1 -10    0.01    0.12
  -2   1 -10   -0.15    0.17
  -2   1 -10    0.03    0.09
  -2   1 -10    0.01    0.09
  -2   1 -10    0.00    0.10
   2  -1  10    0.07    0.06
   2  -1  10   -0.08    0.09
  -3   1 -10    5.28    0.35
  -3   1 -10    5.86    0.35
  -3   1 -10    4.77    0.25
  -3   1 -10    4.79    0.27
   3  -1  10    4.83    0.25
   3  -1  10    5.14    0.20
   4   0 -10    1.94    0.17
   4   0 -10    1.80    0.21
   4   0 -10    1.95    0.15
   4   0 -10    1.86    0.17
  -4   0  10    1.81    0.16
   3   0 -10    0.29    0.13
   3   0 -10    0.25    0.09
   3   0 -10    0.36    0.08
   3   0 -10    0.31    0.12
   3   0 -10    0.35    0.10
  -3   0  10    0.42    0.11
  -3   0  10    0.30    0.08
  -3   0  10    0.24    0.08
  -3   0  10    0.39    0.09
   2   0 -10   13.17    0.39
   2   0 -10   12.90    0.37
   2   0 -10   13.16    0.36
   2   0 -10   13.10    0.46
   2   0 -10   13.49    0.40
   2   0 -10   12.92    0.45
  -2   0  10   12.44    0.41
  -2   0  10   12.94    0.35
  -2   0  10   13.52    0.37
  -2   0  10   13.30    0.33
  -2   0  10   13.70    0.32
   1   0 -10    0.41    0.03
   1   0 -10    0.42    0.07
   1   0 -10    0.35    0.07
   1   0 -10    0.43    0.09
   1   0 -10    0.47    0.09
   1   0 -10    0.38    0.03
  -1   0  10    0.48    0.06
  -1   0  10    0.39    0.06
  -1   0  10    0.41    0.05
  -1   0  10    0.28    0.09
  -1   0  10    0.43    0.05
   0   0 -10    6.78    0.20
   0   0 -10    7.12    0.30
   0   0 -10    6.74    0.27
   0   0 -10    6.79    0.23
   0   0 -10    6.73    0.25
   0   0 -10    6.71    0.20
   0   0 -10    6.76    0.23
   0   0  10    6.63    0.23
   0   0  10    6.57    0.19
  -1   0 -10    1.40    0.15
  -1   0 -10    1.74    0.14
  -1   0 -10    1.46    0.13
  -1   0 -10    1.48    0.14
  -1   0 -10    1.46    0.12
   1   0  10    1.64    0.12
   1   0  10    1.69    0.12
  -2   0 -10    7.54    0.30
  -2   0 -10    7.42    0.29
  -2   0 -10    7.73    0.31
  -2   0 -10    7.57    0.36
   2   0  10    7.98    0.29
   2   0  10    7.98    0.22
  -3   0 -10    2.96    0.23
  -3   0 -10    2.70    0.21
   3   0  10    2.79    0.16
   3   0  10    2.84    0.21
   4  -1 -10   -0.01    0.10
   4  -1 -10   -0.18    0.16
   4  -1 -10    0.07    0.12
  -4   1  10   -0.05    0.11
   3  -1 -10    8.39    0.39
   3  -1 -10    8.74    0.37
   3  -1 -10    9.34    0.33
   3  -1 -10    8.42    0.29
   3  -1 -10    8.76    0.32
  -3   1  10    9.29    0.30
  -3   1  10    9.10    0.27
   2  -1 -10   11.60    0.42
   2  -1 -10   11.63    0.33
   2  -1 -10   11.26    0.36
   2  -1 -10   12.08    0.37
   2  -1 -10   11.75    0.43
  -2   1  10    9.83    0.32
  -2   1  10   11.58    0.34
  -2   1  10   11.44    0.38
  -2   1  10   11.67    0.30
   1  -1 -10    0.65    0.11
   1  -1 -10    0.58    0.06
   1  -1 -10    0.50    0.06
   1  -1 -10    0.59    0.12
   1  -1 -10    0.66    0.09
   1  -1 -10    0.61    0.10
  -1   1  10    0.56    0.06
  -1   1  10    0.51    0.06
  -1   1  10    0.55    0.08
   0  -1 -10   18.12    0.54
   0  -1 -10   17.88    0.52
   0  -1 -10   18.02    0.63
   0  -1 -10   17.92    0.60
   0  -1 -10   18.51    0.49
   0  -1 -10   18.13    0.48
   0   1  10   18.17    0.45
   0   1  10   18.16    0.51
  -1  -1 -10   19.30    0.57
  -1  -1 -10   19.35    0.67
  -1  -1 -10   20.40    0.66
  -1  -1 -10   19.39    0.57
  -1  -1 -10   17.92    0.57
   1   1  10   19.47    0.54
   1   1  10   19.70    0.43
   1   1  10   18.86    0.51
  -2  -1 -10    5.39    0.25
  -2  -1 -10    5.26    0.26
  -2  -1 -10    5.18    0.31
  -2  -1 -10    5.19    0.27
   2   1  10    5.45    0.24
   2   1  10    5.32    0.18
  -3  -1 -10    0.36    0.14
  -3  -1 -10    0.27    0.13
   3   1  10    0.36    0.10
   3   1  10    0.30    0.13
   4  -2 -10    6.88    0.38
   4  -2 -10    7.15    0.29
   4  -2 -10    7.55    0.32
  -4   2  10    7.44    0.31
   3  -2 -10    0.98    0.18
   3  -2 -10    0.87    0.11
   3  -2 -10    0.85    0.13
   3  -2 -10    0.77    0.15
   3  -2 -10    0.78    0.12
  -3   2  10    0.67    0.11
  -3   2  10    0.96    0.10
   2  -2 -10    0.18    0.09
   2  -2 -10    0.22    0.13
   2  -2 -10    0.20    0.10
   2  -2 -10    0.29    0.08
   2  -2 -10    0.25    0.11
  -2   2  10    0.28    0.04
  -2   2  10    0.11    0.09
  -2   2  10    0.17    0.09
  -2   2  10    0.31    0.09
  -2   2  10    0.34    0.07
   1  -2 -10    9.60    0.34
   1  -2 -10    9.46    0.38
   1  -2 -10    9.43    0.32
   1  -2 -10    8.78    0.37
   1  -2 -10    9.17    0.28
  -1   2  10    9.33    0.26
  -1   2  10    9.12    0.31
  -1   2  10    9.39    0.26
   0  -2 -10   17.86    0.62
   0  -2 -10   16.68    0.48
   0  -2 -10   17.32    0.59
   0  -2 -10   17.04    0.53
   0  -2 -10   16.99    0.52
   0   2  10   16.74    0.44
   0   2  10   17.72    0.38
   0   2  10   16.87    0.50
  -1  -2 -10    3.92    0.22
  -1  -2 -10    4.18    0.28
  -1  -2 -10    4.50    0.23
  -1  -2 -10    4.71    0.27
  -1  -2 -10    4.48    0.22
   1   2  10    4.55    0.21
   1   2  10    3.57    0.20
   1   2  10    4.14    0.15
  -2  -2 -10    1.67    0.17
  -2  -2 -10    1.45    0.15
  -2  -2 -10    1.58    0.21
   2   2  10    1.62    0.11
   2   2  10    1.77    0.16
  -3  -2 -10    3.26    0.25
  -3  -2 -10    3.28    0.23
   3   2  10    3.41    0.18
   3   2  10    3.48    0.25
   4  -3 -10    0.97    0.22
   4  -3 -10    0.89    0.16
   4  -3 -10    0.77    0.14
  -4   3  10    1.12    0.15
   3  -3 -10    4.98    0.30
   3  -3 -10    5.19    0.30
   3  -3 -10    4.98    0.24
   3  -3 -10    5.16    0.23
   3  -3 -10    5.48    0.26
  -3   3  10    5.05    0.21
  -3   3  10    4.98    0.24
   2  -3 -10    5.83    0.33
   2  -3 -10    6.09    0.23
   2  -3 -10    6.56    0.29
   2  -3 -10    6.56    0.32
   2  -3 -10    6.15    0.26
  -2   3  10    6.12    0.18
  -2   3  10    6.09    0.24
  -2   3  10    6.21    0.25
  -2   3  10    6.34    0.21
  -2   3  10    6.14    0.27
   1  -3 -10    1.47    0.14
   1  -3 -10    1.28    0.18
   1  -3 -10    1.64    0.13
   1  -3 -10    1.53    0.17
   1  -3 -10    1.53    0.15
  -1   3  10    1.43    0.09
  -1   3  10    1.45    0.11
  -1   3  10    1.40    0.10
  -1   3  10    1.49    0.14
   0  -3 -10    0.39    0.11
   0  -3 -10    0.37    0.09
   0  -3 -10    0.30    0.16
   0  -3 -10    0.37    0.11
   0  -3 -10    0.33    0.12
   0   3  10    0.42    0.10
   0   3  10    0.34    0.06
   0   3  10    0.16    0.08
   0   3  10    0.19    0.08
  -1  -3 -10    5.76    0.30
  -1  -3 -10    5.26    0.26
  -1  -3 -10    5.75    0.25
  -1  -3 -10    5.42    0.26
  -1  -3 -10    5.49    0.33
   1   3  10    5.81    0.18
   1   3  10    5.68    0.25
   1   3  10    5.18    0.24
  -2  -3 -10    5.31    0.28
  -2  -3 -10    5.36    0.34
  -2  -3 -10    5.31    0.28
   2   3  10    5.64    0.21
   2   3  10    5.11    0.26
   4  -4 -10    1.06    0.17
   4  -4 -10    0.79    0.15
   4  -4 -10    1.05    0.21
  -4   4  10    0.77    0.15
   3  -4 -10    3.67    0.26
   3  -4 -10    3.47    0.23
   3  -4 -10    3.29    0.21
   3  -4 -10    3.14    0.19
  -3   4  10    3.52    0.19
  -3   4  10    3.24    0.21
   2  -4 -10    4.40    0.20
   2  -4 -10    3.32    0.31
   2  -4 -10    4.61    0.30
   2  -4 -10    5.20    0.28
   2  -4 -10    4.38    0.23
  -2   4  10    4.57    0.19
  -2   4  10    4.66    0.23
  -2   4  10    4.60    0.16
   1  -4 -10   -0.01    0.09
   1  -4 -10   -0.01    0.10
   1  -4 -10   -0.01    0.12
   1  -4 -10    0.02    0.10
   1  -4 -10    0.09    0.14
  -1   4  10    0.10    0.08
  -1   4  10    0.01    0.11
  -1   4  10    0.09    0.06
   0  -4 -10    8.24    0.33
   0  -4 -10    8.15    0.39
   0  -4 -10    7.45    0.32
   0  -4 -10    7.39    0.29
   0  -4 -10    7.77    0.36
   0   4  10    7.98    0.27
   0   4  10    7.94    0.31
   0   4  10    7.87    0.22
  -1  -4 -10   11.96    0.43
  -1  -4 -10   10.61    0.42
  -1  -4 -10   11.01    0.40
  -1  -4 -10   11.45    0.52
  -1  -4 -10   11.51    0.42
   1   4  10   11.67    0.40
   1   4  10   11.28    0.38
   1   4  10   11.60    0.31
  -2  -4 -10    1.58    0.19
  -2  -4 -10    1.66    0.19
  -2  -4 -10    1.71    0.24
   2   4  10    1.56    0.13
   2   4  10    1.65    0.17
   4  -5 -10    2.72    0.21
   4  -5 -10    2.67    0.23
  -4   5  10    2.50    0.21
   3  -5 -10    3.09    0.23
   3  -5 -10    2.92    0.27
   3  -5 -10    3.14    0.20
  -3   5  10    3.16    0.22
   2  -5 -10    0.13    0.12
   2  -5 -10    0.23    0.15
   2  -5 -10    0.19    0.10
   2  -5 -10    0.17    0.16
   2  -5 -10   -0.01    0.16
  -2   5  10    0.15    0.12
  -2   5  10    0.05    0.09
   1  -5 -10    9.30    0.43
   1  -5 -10    8.79    0.43
   1  -5 -10    9.00    0.33
   1  -5 -10    8.77    0.37
   1  -5 -10    9.41    0.37
  -1   5  10    8.79    0.36
  -1   5  10    9.56    0.26
  -1   5  10    9.67    0.30
   0  -5 -10    4.06    0.25
   0  -5 -10    4.08    0.31
   0  -5 -10    4.06    0.22
   0  -5 -10    3.99    0.24
   0   5  10    4.00    0.17
   0   5  10    4.04    0.20
   0   5  10    4.20    0.23
  -1  -5 -10    0.87    0.20
  -1  -5 -10    0.75    0.14
  -1  -5 -10    0.90    0.15
   1   5  10    0.81    0.14
   1   5  10    0.94    0.10
  -2  -5 -10    1.05    0.19
  -2  -5 -10    1.12    0.18
   2   5  10    1.07    0.12
   2   5  10    1.03    0.16
   4  -6 -10    0.61    0.15
  -4   6  10    0.83    0.17
   3  -6 -10    2.59    0.28
   3  -6 -10    2.71    0.23
   3  -6 -10    2.88    0.21
  -3   6  10    2.81    0.22
   2  -6 -10    4.18    0.23
   2  -6 -10    4.17    0.26
   2  -6 -10    4.53    0.33
  -2   6  10    3.80    0.26
  -2   6  10    4.17    0.21
   1  -6 -10    2.85    0.27
   1  -6 -10    2.77    0.23
   1  -6 -10    2.96    0.20
  -1   6  10    2.64    0.21
  -1   6  10    2.83    0.15
  -1   6  10    2.88    0.18
   0  -6 -10   -0.03    0.10
   0  -6 -10    0.18    0.16
   0  -6 -10   -0.05    0.11
   0   6  10   -0.06    0.10
   0   6  10   -0.12    0.11
   0   6  10   -0.06    0.08
  -1  -6 -10    5.74    0.31
  -1  -6 -10    5.19    0.27
   1   6  10    5.31    0.28
   1   6  10    5.40    0.21
   3  -7 -10    2.38    0.20
   3  -7 -10    2.50    0.24
  -3   7  10    2.23    0.22
   2  -7 -10    1.49    0.17
   2  -7 -10    1.40    0.24
   2  -7 -10    1.41    0.20
  -2   7  10    1.43    0.20
  -2   7  10    1.40    0.15
   1  -7 -10    0.34    0.15
   1  -7 -10    0.41    0.13
   1  -7 -10    0.16    0.20
  -1   7  10    0.30    0.09
  -1   7  10    0.41    0.14
  -1   7  10    0.51    0.12
   0  -7 -10   10.24    0.41
   0  -7 -10    9.95    0.37
   0   7  10    9.26    0.34
   0   7  10    9.51    0.29
   0   7  10    9.48    0.37
  -1  -7 -10    0.38    0.14
   1   7  10    0.51    0.11
   1   7  10    0.48    0.15
   3  -8 -10    0.93    0.18
  -3   8  10    0.90    0.20
   2  -8 -10    2.75    0.22
  -2   8  10    1.88    0.23
   1  -8 -10    2.13    0.20
   1  -8 -10    2.56    0.23
  -1   8  10    2.46    0.22
   0  -8 -10    1.27    0.17
   0   8  10    1.14    0.12
   0   8  10    1.25    0.17
   2  -9 -10    1.38    0.19
  -2   9  10    1.32    0.22
   1  -9 -10    1.11    0.18
  -1   9  10    0.65    0.17
   0  11 -11   -0.02    0.10
   0  11 -11    0.07    0.11
   0  11 -11   -0.01    0.15
   0 -11  11    0.08    0.10
   2  10 -11    1.09    0.20
   2  10 -11    1.38    0.15
   2  10 -11    1.24    0.14
   2  10 -11    1.24    0.21
  -2 -10  11    1.29    0.15
   1  10 -11   -0.01    0.15
   1  10 -11   -0.03    0.09
   1  10 -11    0.02    0.09
   1  10 -11    0.11    0.15
  -1 -10  11    0.11    0.09
   0  10 -11    1.96    0.19
   0  10 -11    1.81    0.15
   0  10 -11    1.35    0.22
   0  10 -11    1.60    0.14
   0 -10  11    1.66    0.13
  -1  10 -11    5.19    0.31
  -1  10 -11    4.84    0.23
  -1  10 -11    4.94    0.25
  -1  10 -11    4.95    0.34
   1 -10  11    5.78    0.23
   2   9 -11    0.58    0.17
   2   9 -11    0.37    0.11
   2   9 -11    0.42    0.10
   2   9 -11    0.77    0.14
  -2  -9  11    0.62    0.13
   1   9 -11    3.80    0.17
   1   9 -11    3.63    0.27
   1   9 -11    3.94    0.26
   1   9 -11    3.82    0.18
  -1  -9  11    4.33    0.19
   0   9 -11    4.75    0.20
   0   9 -11    4.65    0.30
   0   9 -11    5.03    0.21
   0   9 -11    4.98    0.26
   0  -9  11    5.22    0.20
  -1   9 -11    0.24    0.10
  -1   9 -11    0.17    0.13
  -1   9 -11    0.10    0.10
  -1   9 -11   -0.05    0.16
   1  -9  11    0.13    0.09
   3   8 -11    0.39    0.09
   3   8 -11    0.33    0.13
   3   8 -11    0.31    0.16
   3   8 -11    0.55    0.15
   3   8 -11    0.30    0.12
  -3  -8  11    0.50    0.12
   2   8 -11    4.29    0.27
   2   8 -11    4.43    0.22
   2   8 -11    4.52    0.26
   2   8 -11    4.20    0.20
  -2  -8  11    4.55    0.23
  -2  -8  11    4.61    0.23
   1   8 -11    3.15    0.14
   1   8 -11    3.23    0.22
   1   8 -11    3.21    0.21
   1   8 -11    3.13    0.14
  -1  -8  11    3.13    0.13
  -1  -8  11    3.32    0.15
   0   8 -11    0.12    0.07
   0   8 -11    0.09    0.11
   0   8 -11    0.11    0.06
   0   8 -11    0.06    0.13
   0  -8  11    0.24    0.07
   0  -8  11    0.11    0.06
  -1   8 -11    5.57    0.27
  -1   8 -11    5.43    0.22
  -1   8 -11    5.34    0.30
  -1   8 -11    5.14    0.23
   1  -8  11    5.44    0.26
   1  -8  11    5.69    0.21
  -2   8 -11    0.07    0.15
  -2   8 -11    0.19    0.11
  -2   8 -11    0.04    0.08
  -2   8 -11    0.16    0.11
  -2   8 -11    0.30    0.16
   2  -8  11    0.05    0.10
   3   7 -11    2.13    0.14
   3   7 -11    1.77    0.19
   3   7 -11    1.91    0.19
   3   7 -11    1.77    0.15
   3   7 -11    1.88    0.15
  -3  -7  11    2.08    0.15
   2   7 -11    0.61    0.12
   2   7 -11    0.56    0.11
   2   7 -11    0.47    0.08
   2   7 -11    0.58    0.12
  -2  -7  11    0.60    0.08
  -2  -7  11    0.65    0.12
  -2  -7  11    0.81    0.11
   1   7 -11    2.36    0.09
   1   7 -11    2.57    0.16
   1   7 -11    2.42    0.18
   1   7 -11    2.39    0.10
  -1  -7  11    2.46    0.10
  -1  -7  11    2.48    0.16
  -1  -7  11    2.42    0.11
   0   7 -11    2.18    0.19
   0   7 -11    2.66    0.10
   0   7 -11    2.47    0.10
   0   7 -11    2.67    0.16
   0  -7  11    2.77    0.12
   0  -7  11    3.09    0.18
   0  -7  11    2.83    0.12
  -1   7 -11    3.24    0.21
  -1   7 -11    3.60    0.17
  -1   7 -11    3.38    0.16
  -1   7 -11    3.35    0.23
   1  -7  11    3.57    0.17
   1  -7  11    3.49    0.20
   1  -7  11    3.45    0.15
  -2   7 -11    0.30    0.11
  -2   7 -11    0.26    0.11
  -2   7 -11    0.16    0.08
  -2   7 -11    0.24    0.16
  -2   7 -11    0.20    0.15
   2  -7  11    0.36    0.11
   3   6 -11    0.06    0.08
   3   6 -11    0.06    0.13
   3   6 -11    0.01    0.09
   3   6 -11    0.07    0.10
   3   6 -11    0.09    0.14
  -3  -6  11    0.02    0.09
   2   6 -11    1.69    0.15
   2   6 -11    1.57    0.13
   2   6 -11    1.15    0.13
   2   6 -11    1.81    0.11
  -2  -6  11    1.67    0.13
  -2  -6  11    1.56    0.10
  -2  -6  11    1.63    0.15
   1   6 -11    5.92    0.22
   1   6 -11    5.72    0.24
  -1  -6  11    6.58    0.24
   0   6 -11   14.48    0.47
   0   6 -11   13.68    0.45
   0  -6  11   14.64    0.33
   0  -6  11   14.57    0.36
   0  -6  11   14.79    0.41
  -1   6 -11    0.03    0.07
  -1   6 -11    0.10    0.12
  -1   6 -11   -0.07    0.10
  -1   6 -11   -0.03    0.07
   1  -6  11    0.20    0.10
   1  -6  11   -0.04    0.06
   1  -6  11    0.01    0.07
  -2   6 -11    6.09    0.25
  -2   6 -11    6.06    0.25
  -2   6 -11    5.72    0.33
  -2   6 -11    6.16    0.21
  -2   6 -11    6.29    0.32
   2  -6  11    6.47    0.25
   4   5 -11   -0.19    0.16
   4   5 -11    0.03    0.10
   4   5 -11   -0.15    0.11
   4   5 -11   -0.12    0.11
  -4  -5  11   -0.08    0.11
   3   5 -11    2.13    0.16
   3   5 -11    2.29    0.13
   3   5 -11    2.37    0.16
   3   5 -11    2.30    0.20
   3   5 -11    1.88    0.22
  -3  -5  11    2.30    0.16
   2   5 -11    7.04    0.28
   2   5 -11    7.33    0.31
   2   5 -11    7.56    0.23
   2   5 -11    7.09    0.23
  -2  -5  11    7.36    0.20
  -2  -5  11    7.83    0.29
  -2  -5  11    7.23    0.22
   1   5 -11    0.47    0.07
  -1  -5  11    0.74    0.10
   0   5 -11    0.10    0.06
   0   5 -11    0.10    0.06
   0  -5  11    0.06    0.08
   0  -5  11    0.07    0.08
  -1   5 -11   10.25    0.37
  -1   5 -11   10.46    0.38
  -1   5 -11   10.21    0.31
  -1   5 -11   10.28    0.31
   1  -5  11   10.38    0.30
   1  -5  11   10.25    0.27
   1  -5  11   10.10    0.32
  -2   5 -11    2.67    0.24
  -2   5 -11    3.04    0.15
  -2   5 -11    2.64    0.18
  -2   5 -11    2.60    0.18
  -2   5 -11    2.87    0.24
   2  -5  11    2.84    0.18
   4   4 -11    1.61    0.16
   4   4 -11    1.64    0.17
   4   4 -11    1.26    0.21
   4   4 -11    1.55    0.14
   4   4 -11    1.48    0.16
  -4  -4  11    1.56    0.15
   3   4 -11    7.78    0.28
   3   4 -11    6.71    0.26
   3   4 -11    8.03    0.34
   3   4 -11    7.30    0.23
   3   4 -11    6.88    0.26
   3   4 -11    7.62    0.33
  -3  -4  11    7.50    0.26
   2   4 -11    1.12    0.09
   2   4 -11    0.94    0.10
   2   4 -11    1.06    0.09
   2   4 -11    0.95    0.10
  -2  -4  11    0.98    0.13
  -2  -4  11    1.07    0.07
  -2  -4  11    1.17    0.08
  -1  -4  11    6.18    0.24
   0   4 -11   13.41    0.43
   0   4 -11   13.90    0.43
   0  -4  11   14.12    0.40
   0  -4  11   14.33    0.38
  -1   4 -11    2.49    0.13
  -1   4 -11    2.45    0.20
  -1   4 -11    2.71    0.13
  -1   4 -11    2.33    0.18
   1  -4  11    2.43    0.14
   1  -4  11    2.51    0.15
   1  -4  11    2.42    0.12
  -2   4 -11    0.67    0.09
  -2   4 -11    0.73    0.12
  -2   4 -11    0.62    0.15
  -2   4 -11    0.63    0.15
  -2   4 -11    0.56    0.11
   2  -4  11    0.64    0.11
   4   3 -11    1.56    0.14
   4   3 -11    1.39    0.20
   4   3 -11    1.59    0.16
   4   3 -11    1.23    0.15
  -4  -3  11    1.46    0.15
   3   3 -11    2.60    0.16
   3   3 -11    2.56    0.21
   3   3 -11    2.77    0.13
   3   3 -11    2.70    0.17
   3   3 -11    2.71    0.21
  -3  -3  11    3.18    0.16
   2   3 -11    0.09    0.05
   2   3 -11    0.09    0.09
   2   3 -11    0.18    0.06
   2   3 -11    0.25    0.08
   2   3 -11    0.15    0.05
  -2  -3  11    0.06    0.05
  -2  -3  11    0.17    0.05
  -2  -3  11    0.07    0.09
  -1  -3  11   18.12    0.52
   0   3 -11    9.49    0.32
   0   3 -11    9.77    0.32
   0  -3  11    9.46    0.26
   0  -3  11   10.27    0.32
   0  -3  11   10.09    0.27
  -1   3 -11    1.03    0.09
  -1   3 -11    0.86    0.09
  -1   3 -11    1.06    0.13
  -1   3 -11    0.39    0.15
   1  -3  11    1.15    0.09
   1  -3  11    1.22    0.11
  -2   3 -11    8.55    0.32
  -2   3 -11    8.28    0.28
  -2   3 -11    9.07    0.39
  -2   3 -11    8.49    0.38
  -2   3 -11    8.14    0.31
   2  -3  11    8.52    0.30
  -3   3 -11    2.03    0.19
  -3   3 -11    1.89    0.16
  -3   3 -11    2.13    0.24
   3  -3  11    2.49    0.16
   3  -3  11    2.41    0.19
   4   2 -11    0.21    0.10
   4   2 -11    0.35    0.12
   4   2 -11    0.06    0.15
   4   2 -11    0.20    0.12
  -4  -2  11    0.11    0.11
   3   2 -11    9.23    0.27
   3   2 -11    9.07    0.31
   3   2 -11    8.25    0.36
   3   2 -11    9.30    0.31
   3   2 -11    9.18    0.36
  -3  -2  11    9.54    0.30
  -3  -2  11    8.98    0.27
   2   2 -11    0.56    0.07
   2   2 -11    0.69    0.11
   2   2 -11    0.62    0.10
   2   2 -11    0.70    0.08
  -2  -2  11    0.59    0.11
  -2  -2  11    0.61    0.06
  -2  -2  11    0.75    0.07
   1   2 -11    5.82    0.21
   1   2 -11    5.50    0.20
  -1  -2  11    5.75    0.23
  -1  -2  11    5.56    0.15
   0   2 -11    1.08    0.08
   0   2 -11    1.20    0.11
   0   2 -11    1.31    0.12
   0   2 -11    1.11    0.08
   0  -2  11    1.35    0.08
   0  -2  11    1.30    0.06
   0  -2  11    1.29    0.12
  -1   2 -11    9.73    0.38
  -1   2 -11   10.71    0.38
  -1   2 -11   10.56    0.33
  -1   2 -11   10.20    0.32
  -1   2 -11    9.95    0.28
   1  -2  11   10.45    0.31
  -2   2 -11    4.65    0.28
  -2   2 -11    4.49    0.23
  -2   2 -11    4.36    0.20
  -2   2 -11    4.18    0.22
   2  -2  11    4.59    0.22
   2  -2  11    4.49    0.16
  -3   2 -11   -0.06    0.11
  -3   2 -11    0.67    0.18
  -3   2 -11   -0.04    0.18
   3  -2  11    0.11    0.12
   3  -2  11   -0.01    0.09
   4   1 -11    2.78    0.20
   4   1 -11    2.81    0.21
   4   1 -11    2.76    0.18
   4   1 -11    2.98    0.26
  -4  -1  11    2.83    0.19
   3   1 -11    2.07    0.16
   3   1 -11    2.39    0.17
   3   1 -11    2.38    0.20
   3   1 -11    2.43    0.14
   3   1 -11    2.43    0.20
  -3  -1  11    2.52    0.16
   2   1 -11    0.53    0.11
   2   1 -11    0.62    0.10
   2   1 -11    0.49    0.07
   2   1 -11    0.56    0.08
  -2  -1  11    0.61    0.08
  -2  -1  11    0.58    0.07
  -2  -1  11    0.58    0.11
   1   1 -11   21.62    0.57
   1   1 -11   21.54    0.66
   1   1 -11   21.70    0.67
   1   1 -11   21.21    0.57
  -1  -1  11   21.77    0.61
  -1  -1  11   21.25    0.54
  -1  -1  11   21.60    0.49
   0   1 -11   19.06    0.60
   0   1 -11   18.54    0.53
   0   1 -11   18.65    0.62
   0   1 -11   18.91    0.52
   0  -1  11   18.92    0.51
   0  -1  11   19.37    0.45
  -1   1 -11    3.26    0.15
  -1   1 -11    3.76    0.21
  -1   1 -11    3.47    0.18
  -1   1 -11    3.59    0.21
  -1   1 -11    3.43    0.18
   1  -1  11    3.47    0.17
  -2   1 -11    2.05    0.20
  -2   1 -11    2.03    0.17
  -2   1 -11    1.96    0.16
  -2   1 -11    1.92    0.15
   2  -1  11    2.18    0.17
   2  -1  11    2.03    0.13
   4   0 -11    0.20    0.13
   4   0 -11    0.06    0.16
   4   0 -11   -0.03    0.12
   4   0 -11    0.07    0.10
  -4   0  11    0.12    0.11
   3   0 -11    0.14    0.12
   3   0 -11   -0.19    0.14
   3   0 -11    0.06    0.09
   3   0 -11   -0.03    0.08
   3   0 -11    0.06    0.10
  -3   0  11    0.02    0.09
   2   0 -11    7.79    0.27
   2   0 -11    7.57    0.32
   2   0 -11    7.77    0.22
   2   0 -11    7.48    0.26
   2   0 -11    7.65    0.32
  -2   0  11    7.43    0.24
  -2   0  11    8.01    0.25
  -2   0  11    8.22    0.22
  -2   0  11    7.94    0.30
   1   0 -11   16.13    0.54
   1   0 -11   15.93    0.46
   1   0 -11   16.74    0.55
   1   0 -11   16.62    0.46
  -1   0  11   16.05    0.48
  -1   0  11   15.93    0.39
  -1   0  11   16.45    0.43
   0   0 -11    2.80    0.17
   0   0 -11    2.84    0.10
   0   0 -11    2.70    0.16
   0   0 -11    2.78    0.15
   0   0 -11    2.80    0.10
   0   0 -11    2.87    0.22
   0   0  11    2.96    0.14
   0   0  11    3.02    0.16
  -1   0 -11    3.65    0.23
  -1   0 -11    3.51    0.19
  -1   0 -11    3.46    0.17
  -1   0 -11    3.23    0.18
  -1   0 -11    3.41    0.22
   1   0  11    3.16    0.18
  -2   0 -11    7.90    0.31
  -2   0 -11    7.37    0.29
  -2   0 -11    7.49    0.31
  -2   0 -11    7.69    0.37
   2   0  11    7.54    0.23
   2   0  11    7.49    0.29
   4  -1 -11    3.35    0.20
   4  -1 -11    3.19    0.31
   4  -1 -11    3.71    0.23
  -4   1  11    3.85    0.22
   3  -1 -11    2.96    0.18
   3  -1 -11    2.78    0.22
   3  -1 -11    3.09    0.20
   3  -1 -11    2.70    0.22
   3  -1 -11    3.01    0.16
  -3   1  11    2.85    0.17
   2  -1 -11    0.29    0.12
   2  -1 -11    0.32    0.13
   2  -1 -11    0.20    0.10
   2  -1 -11    0.27    0.07
   2  -1 -11    0.19    0.08
  -2   1  11    0.02    0.08
  -2   1  11    0.40    0.11
  -2   1  11    0.34    0.08
   1  -1 -11    0.40    0.08
   1  -1 -11    0.25    0.06
   1  -1 -11    0.33    0.11
   1  -1 -11    0.19    0.08
   1  -1 -11    0.32    0.12
  -1   1  11    0.37    0.10
  -1   1  11    0.33    0.08
  -1   1  11    0.29    0.08
  -1   1  11    0.38    0.06
  -1   1  11    0.33    0.07
   0  -1 -11    7.33    0.34
   0  -1 -11    7.39    0.31
   0  -1 -11    7.25    0.27
   0  -1 -11    7.85    0.23
   0  -1 -11    7.52    0.27
   0  -1 -11    7.27    0.28
   0   1  11    7.71    0.27
   0   1  11    7.39    0.24
  -1  -1 -11    9.99    0.42
  -1  -1 -11    9.83    0.40
  -1  -1 -11    9.79    0.33
  -1  -1 -11   10.01    0.35
  -1  -1 -11    9.34    0.35
   1   1  11   10.15    0.25
   1   1  11    9.36    0.33
  -2  -1 -11    0.89    0.14
  -2  -1 -11    0.16    0.17
  -2  -1 -11    0.98    0.15
  -2  -1 -11    0.95    0.14
   2   1  11    0.96    0.13
   2   1  11    1.10    0.10
   4  -2 -11    0.85    0.15
   4  -2 -11    0.63    0.21
   4  -2 -11    0.64    0.13
  -4   2  11    0.76    0.14
   3  -2 -11    2.52    0.22
   3  -2 -11    2.36    0.16
   3  -2 -11    2.75    0.20
   3  -2 -11    2.53    0.24
   3  -2 -11    2.28    0.18
  -3   2  11    2.59    0.18
   2  -2 -11    0.72    0.16
   2  -2 -11    0.64    0.09
   2  -2 -11    0.63    0.13
   2  -2 -11    0.61    0.10
   2  -2 -11    0.71    0.14
  -2   2  11    0.53    0.11
  -2   2  11    0.68    0.10
  -2   2  11    0.73    0.06
   1  -2 -11   10.75    0.45
   1  -2 -11   11.49    0.34
   1  -2 -11   11.83    0.39
   1  -2 -11   11.43    0.38
   1  -2 -11   12.31    0.46
  -1   2  11   11.72    0.32
  -1   2  11   11.81    0.32
  -1   2  11   11.67    0.37
   0  -2 -11   14.84    0.43
   0  -2 -11   15.59    0.57
   0  -2 -11   14.88    0.54
   0  -2 -11   15.09    0.47
   0  -2 -11   15.40    0.49
   0   2  11   15.04    0.45
   0   2  11   15.19    0.34
  -1  -2 -11    0.76    0.15
  -1  -2 -11    0.72    0.13
  -1  -2 -11    0.73    0.12
  -1  -2 -11    0.81    0.12
  -1  -2 -11    0.72    0.17
   1   2  11    0.75    0.12
   1   2  11    0.77    0.08
  -2  -2 -11    1.83    0.18
  -2  -2 -11    2.42    0.20
  -2  -2 -11    1.34    0.22
   2   2  11    2.08    0.13
   2   2  11    2.13    0.18
   4  -3 -11    1.10    0.15
   4  -3 -11    0.87    0.22
   4  -3 -11    1.08    0.16
  -4   3  11    1.05    0.16
   3  -3 -11    0.41    0.16
   3  -3 -11    0.25    0.12
   3  -3 -11    0.17    0.10
   3  -3 -11    0.28    0.12
   3  -3 -11    0.44    0.14
  -3   3  11    0.22    0.11
   2  -3 -11    8.35    0.31
   2  -3 -11    8.42    0.28
   2  -3 -11    8.04    0.37
   2  -3 -11    8.74    0.37
   2  -3 -11    7.45    0.40
  -2   3  11    8.71    0.23
  -2   3  11    7.80    0.30
   1  -3 -11    4.14    0.22
   1  -3 -11    3.83    0.19
   1  -3 -11    4.16    0.27
   1  -3 -11    4.50    0.28
   1  -3 -11    4.17    0.23
  -1   3  11    4.13    0.22
  -1   3  11    4.37    0.14
   0  -3 -11    0.78    0.14
   0  -3 -11    0.85    0.11
   0  -3 -11    0.99    0.19
   0  -3 -11    1.14    0.13
   0  -3 -11    0.94    0.13
   0   3  11    1.05    0.08
   0   3  11    0.87    0.12
  -1  -3 -11    1.99    0.18
  -1  -3 -11    2.41    0.19
  -1  -3 -11    2.63    0.21
  -1  -3 -11    2.60    0.25
   1   3  11    2.55    0.14
   1   3  11    2.51    0.20
  -2  -3 -11    7.84    0.36
  -2  -3 -11    8.16    0.37
  -2  -3 -11    8.15    0.44
   2   3  11    8.44    0.34
   2   3  11    8.66    0.26
   4  -4 -11    1.90    0.19
   4  -4 -11    1.73    0.18
  -4   4  11    1.91    0.19
   3  -4 -11    2.21    0.19
   3  -4 -11    2.20    0.17
   3  -4 -11    2.40    0.24
  -3   4  11    2.24    0.18
   2  -4 -11    1.64    0.23
   2  -4 -11    2.03    0.21
   2  -4 -11    2.23    0.19
   2  -4 -11    2.21    0.22
   2  -4 -11    2.12    0.17
  -2   4  11    2.26    0.17
  -2   4  11    2.21    0.13
   1  -4 -11    0.57    0.13
   1  -4 -11    0.42    0.10
   1  -4 -11    0.69    0.17
   1  -4 -11    0.44    0.12
   1  -4 -11    0.56    0.15
  -1   4  11    0.50    0.07
  -1   4  11    0.25    0.12
   0  -4 -11   11.20    0.40
   0  -4 -11   10.88    0.45
   0  -4 -11   10.13    0.36
   0  -4 -11   10.60    0.40
   0  -4 -11   10.60    0.47
   0   4  11   10.55    0.28
   0   4  11   10.45    0.38
  -1  -4 -11    9.26    0.39
  -1  -4 -11    9.30    0.46
  -1  -4 -11    9.49    0.35
   1   4  11    9.19    0.36
   1   4  11    9.69    0.28
  -2  -4 -11    0.16    0.14
  -2  -4 -11    0.13    0.15
   2   4  11    0.13    0.13
   2   4  11    0.31    0.10
   3  -5 -11    0.43    0.13
   3  -5 -11    0.04    0.21
   3  -5 -11    0.40    0.14
  -3   5  11    0.42    0.13
   2  -5 -11    1.48    0.14
   2  -5 -11    1.68    0.22
   2  -5 -11    1.27    0.16
  -2   5  11    1.54    0.17
   1  -5 -11   11.83    0.44
   1  -5 -11   12.71    0.45
   1  -5 -11   12.19    0.53
   1  -5 -11   11.65    0.40
  -1   5  11   12.88    0.33
  -1   5  11   12.13    0.43
   0  -5 -11    1.61    0.22
   0  -5 -11    1.90    0.16
   0  -5 -11    1.67    0.18
   0   5  11    1.61    0.11
   0   5  11    1.59    0.17
  -1  -5 -11    0.14    0.18
  -1  -5 -11    0.15    0.12
  -1  -5 -11   -0.10    0.13
   1   5  11    0.12    0.12
   1   5  11    0.01    0.08
   3  -6 -11    2.21    0.22
   3  -6 -11    2.44    0.20
  -3   6  11    2.50    0.22
   2  -6 -11    2.33    0.21
   2  -6 -11    2.20    0.18
   2  -6 -11    2.33    0.27
  -2   6  11    2.16    0.21
   1  -6 -11    1.88    0.17
   1  -6 -11    2.11    0.20
   1  -6 -11    2.14    0.27
  -1   6  11    1.94    0.13
  -1   6  11    2.07    0.19
   0  -6 -11    1.48    0.16
   0  -6 -11    1.62    0.22
   0  -6 -11    1.34    0.18
   0   6  11    1.36    0.12
   0   6  11    1.25    0.16
  -1  -6 -11    1.43    0.19
  -1  -6 -11    1.20    0.16
   1   6  11    0.90    0.17
   1   6  11    1.15    0.12
   2  -7 -11    0.43    0.14
   2  -7 -11    0.45    0.16
  -2   7  11    0.17    0.16
   1  -7 -11    1.06    0.18
   1  -7 -11    0.81    0.23
   1  -7 -11    1.04    0.16
  -1   7  11    1.01    0.12
  -1   7  11    0.84    0.17
   0  -7 -11    1.16    0.16
   0  -7 -11    1.46    0.19
   0   7  11    1.23    0.12
   0   7  11    1.32    0.17
   1  -8 -11    1.16    0.17
  -1   8  11    1.12    0.18
   0  10 -12    4.65    0.30
   2   9 -12    0.78    0.16
   2   9 -12    0.91    0.15
   2   9 -12    0.69    0.10
   2   9 -12    0.54    0.10
   1   9 -12    1.01    0.08
   1   9 -12    1.27    0.17
   1   9 -12    0.97    0.08
   1   9 -12    1.38    0.17
   0   9 -12    1.33    0.16
   0   9 -12    1.09    0.09
   0   9 -12    1.55    0.18
   0   9 -12    1.42    0.11
  -1   9 -12   -0.33    0.15
  -1   9 -12    0.04    0.13
  -1   9 -12    0.10    0.09
  -1   9 -12    0.06    0.08
   2   8 -12    1.86    0.13
   2   8 -12    2.03    0.18
   2   8 -12    2.09    0.20
   2   8 -12    1.93    0.14
   1   8 -12    3.82    0.23
   1   8 -12    3.16    0.22
   0   8 -12    0.51    0.12
   0   8 -12    0.35    0.11
  -1   8 -12    4.23    0.18
  -1   8 -12    4.14    0.20
  -1   8 -12    4.41    0.25
  -1   8 -12    4.51    0.27
   3   7 -12    2.17    0.18
   3   7 -12    2.03    0.16
   3   7 -12    1.95    0.19
   3   7 -12    1.60    0.19
  -3  -7  12    2.29    0.17
   2   7 -12   -0.02    0.06
   2   7 -12   -0.02    0.10
   2   7 -12   -0.02    0.10
   2   7 -12    0.01    0.06
  -2  -7  12   -0.22    0.10
   1   7 -12    0.13    0.10
   1   7 -12    0.07    0.10
   0   7 -12    7.94    0.30
   0   7 -12    8.22    0.30
  -1   7 -12    2.52    0.21
  -1   7 -12    2.45    0.14
  -1   7 -12    2.29    0.13
  -1   7 -12    2.14    0.19
   3   6 -12    0.24    0.10
   3   6 -12    0.23    0.13
   3   6 -12    0.40    0.10
   3   6 -12    0.44    0.15
  -3  -6  12    0.41    0.10
   2   6 -12    1.37    0.14
   2   6 -12    2.02    0.10
   2   6 -12    2.13    0.16
   2   6 -12    2.16    0.09
  -2  -6  12    2.18    0.17
   1   6 -12    6.53    0.23
   1   6 -12    6.30    0.25
  -1  -6  12    6.70    0.25
   0   6 -12    0.51    0.08
   0   6 -12    0.51    0.10
  -1   6 -12    1.29    0.15
  -1   6 -12    1.56    0.12
  -1   6 -12    1.71    0.11
  -1   6 -12    1.42    0.15
   1  -6  12    1.61    0.10
  -2   6 -12    2.80    0.24
  -2   6 -12    2.62    0.18
  -2   6 -12    2.52    0.22
  -2   6 -12    2.81    0.18
   2  -6  12    2.69    0.18
   3   5 -12    0.26    0.13
   3   5 -12    0.25    0.09
   3   5 -12   -0.19    0.17
   3   5 -12    0.27    0.09
  -3  -5  12    0.11    0.08
   2   5 -12    5.97    0.25
   2   5 -12    5.95    0.28
  -2  -5  12    6.47    0.27
  -2  -5  12    6.39    0.17
  -1  -5  12    3.81    0.20
   0   5 -12    2.05    0.12
   0   5 -12    1.85    0.13
  -1   5 -12    8.33    0.34
  -1   5 -12    8.83    0.34
  -1   5 -12    8.39    0.27
  -1   5 -12    8.40    0.27
   1  -5  12    8.35    0.24
   1  -5  12    9.15    0.26
  -2   5 -12    3.30    0.19
  -2   5 -12    3.47    0.27
  -2   5 -12    3.23    0.19
  -2   5 -12    3.43    0.26
   2  -5  12    3.62    0.20
   3   4 -12    1.23    0.15
   3   4 -12    0.96    0.11
   3   4 -12    1.52    0.18
   3   4 -12    1.21    0.16
   3   4 -12    1.16    0.11
  -3  -4  12    1.24    0.11
   2   4 -12    3.50    0.18
   2   4 -12    3.55    0.18
  -2  -4  12    3.75    0.12
  -2  -4  12    3.69    0.22
  -1  -4  12    0.83    0.11
   0   4 -12    8.63    0.29
   0   4 -12    8.02    0.28
   0  -4  12    9.35    0.30
  -1   4 -12    4.02    0.16
  -1   4 -12    3.82    0.23
  -1   4 -12    3.90    0.16
  -1   4 -12    3.82    0.23
   1  -4  12    4.21    0.17
  -2   4 -12    0.16    0.10
  -2   4 -12    0.27    0.15
  -2   4 -12    0.26    0.11
  -2   4 -12    0.25    0.15
   2  -4  12    0.14    0.10
   4   3 -12    0.21    0.12
   4   3 -12    0.14    0.17
   4   3 -12    0.19    0.12
   4   3 -12    0.29    0.10
  -4  -3  12    0.42    0.12
   3   3 -12    0.39    0.12
   3   3 -12    0.18    0.13
   3   3 -12    0.37    0.09
   3   3 -12    0.34    0.09
  -3  -3  12    0.36    0.09
   2   3 -12   14.00    0.37
   2   3 -12   13.44    0.37
   2   3 -12   13.20    0.44
   2   3 -12   13.01    0.45
  -2  -3  12   14.02    0.36
  -2  -3  12   13.81    0.44
  -2  -3  12   13.64    0.33
   1   3 -12    8.38    0.27
   1   3 -12    8.31    0.27
  -1  -3  12    8.62    0.30
   0   3 -12    0.66    0.08
   0   3 -12    0.68    0.08
   0  -3  12    0.64    0.04
   0  -3  12    0.67    0.11
  -1   3 -12    3.92    0.17
  -1   3 -12    4.17    0.17
  -1   3 -12    4.40    0.23
   1  -3  12    3.89    0.17
  -2   3 -12    6.65    0.27
  -2   3 -12    6.27    0.23
  -2   3 -12    6.27    0.34
  -2   3 -12    6.04    0.33
  -2   3 -12    6.21    0.26
  -2   3 -12    6.09    0.33
   2  -3  12    6.45    0.26
   4   2 -12    0.02    0.09
   4   2 -12   -0.04    0.16
   4   2 -12    0.07    0.12
   4   2 -12    0.09    0.11
  -4  -2  12    0.20    0.11
   3   2 -12    2.72    0.21
   3   2 -12    2.98    0.17
   3   2 -12    2.12    0.15
   3   2 -12    2.68    0.21
  -3  -2  12    2.78    0.16
   2   2 -12    9.65    0.29
   2   2 -12   10.04    0.36
   2   2 -12   10.20    0.31
   2   2 -12    9.91    0.36
  -2  -2  12   10.42    0.27
  -2  -2  12    9.98    0.36
  -2  -2  12   10.76    0.28
   1   2 -12    0.96    0.10
   1   2 -12    1.01    0.09
  -1  -2  12    0.81    0.11
   0   2 -12    4.59    0.21
   0   2 -12    4.52    0.15
   0   2 -12    4.81    0.15
   0   2 -12    4.95    0.21
   0  -2  12    4.70    0.17
   0  -2  12    4.94    0.22
  -1   2 -12   11.74    0.43
  -1   2 -12   11.05    0.36
  -1   2 -12   11.91    0.36
   1  -2  12   11.59    0.34
  -2   2 -12    3.71    0.22
  -2   2 -12    3.90    0.28
  -2   2 -12    4.11    0.20
  -2   2 -12    3.61    0.22
   2  -2  12    4.11    0.21
   4   1 -12    0.86    0.14
   4   1 -12    0.67    0.18
   4   1 -12    0.74    0.14
   4   1 -12    0.71    0.11
  -4  -1  12    0.61    0.13
   3   1 -12    0.03    0.13
   3   1 -12    0.06    0.06
   3   1 -12    0.11    0.13
   3   1 -12   -0.03    0.09
   3   1 -12    0.11    0.09
  -3  -1  12    0.01    0.09
   2   1 -12    0.00    0.11
   2   1 -12    0.07    0.09
   2   1 -12    0.10    0.10
   2   1 -12    0.06    0.07
  -2  -1  12    0.10    0.06
  -2  -1  12    0.08    0.07
   1   1 -12    5.44    0.24
   1   1 -12    5.68    0.25
   1   1 -12    5.50    0.17
   1   1 -12    5.33    0.17
   1   1 -12    5.72    0.18
  -1  -1  12    5.69    0.17
  -1  -1  12    5.83    0.25
   0   1 -12    9.57    0.29
   0   1 -12    9.83    0.37
   0   1 -12    9.75    0.30
   0   1 -12    9.70    0.35
   0  -1  12   10.09    0.30
   0  -1  12    9.01    0.33
  -1   1 -12    0.32    0.09
  -1   1 -12    0.29    0.12
  -1   1 -12    0.21    0.12
  -1   1 -12    0.12    0.09
  -1   1 -12    0.23    0.06
   1  -1  12    0.17    0.08
  -2   1 -12    2.69    0.19
  -2   1 -12    2.86    0.20
  -2   1 -12    2.83    0.22
  -2   1 -12    2.59    0.23
   2  -1  12    2.49    0.20
   4   0 -12    1.05    0.12
   4   0 -12    1.04    0.15
   4   0 -12    0.69    0.21
  -4   0  12    0.85    0.14
   3   0 -12    1.35    0.10
   3   0 -12    1.29    0.18
   3   0 -12    1.41    0.13
   3   0 -12    1.28    0.16
   3   0 -12    1.30    0.13
  -3   0  12    1.37    0.13
   2   0 -12    7.39    0.24
   2   0 -12    7.32    0.31
   2   0 -12    7.26    0.29
   2   0 -12    7.25    0.30
  -2   0  12    7.05    0.24
  -2   0  12    6.04    0.23
   1   0 -12   10.56    0.40
   1   0 -12   10.93    0.32
   1   0 -12   10.91    0.40
   1   0 -12   10.39    0.32
  -1   0  12   10.47    0.31
  -1   0  12   10.44    0.28
  -1   0  12   10.54    0.37
   0   0 -12   -0.01    0.09
   0   0 -12    0.01    0.07
   0   0 -12    0.12    0.12
   0   0 -12    0.11    0.08
   0   0  12    0.09    0.08
  -1   0 -12    4.02    0.21
  -1   0 -12    4.07    0.17
  -1   0 -12    3.98    0.25
  -1   0 -12    3.81    0.20
  -1   0 -12    3.89    0.25
   1   0  12    3.96    0.20
  -2   0 -12    4.72    0.25
  -2   0 -12    4.34    0.24
  -2   0 -12    4.39    0.25
   2   0  12    4.51    0.24
   2   0  12    4.75    0.18
   4  -1 -12    0.03    0.10
   4  -1 -12   -0.11    0.18
   4  -1 -12    0.14    0.13
  -4   1  12    0.07    0.12
   3  -1 -12    4.76    0.24
   3  -1 -12    4.33    0.28
   3  -1 -12    3.92    0.22
   3  -1 -12    4.35    0.19
   3  -1 -12    4.33    0.28
  -3   1  12    4.55    0.22
   2  -1 -12    3.54    0.25
   2  -1 -12    3.30    0.17
   2  -1 -12    3.78    0.14
   2  -1 -12    3.21    0.23
   2  -1 -12    3.78    0.22
  -2   1  12    3.68    0.17
  -2   1  12    2.49    0.17
   1  -1 -12    0.36    0.05
   1  -1 -12    0.48    0.13
   1  -1 -12    0.38    0.09
   1  -1 -12    0.61    0.15
   1  -1 -12    0.48    0.09
  -1   1  12    0.44    0.09
  -1   1  12    0.37    0.08
  -1   1  12    0.35    0.11
  -1   1  12    0.53    0.08
   0  -1 -12    4.51    0.22
   0  -1 -12    4.70    0.28
   0  -1 -12    4.87    0.17
   0  -1 -12    4.74    0.21
   0  -1 -12    5.10    0.26
   0   1  12    4.61    0.22
  -1  -1 -12   12.66    0.39
  -1  -1 -12   12.38    0.44
  -1  -1 -12   13.61    0.43
  -1  -1 -12   12.73    0.50
  -1  -1 -12   12.33    0.51
   1   1  12   12.70    0.41
  -2  -1 -12    0.39    0.19
  -2  -1 -12    0.14    0.12
  -2  -1 -12    0.17    0.13
   2   1  12    0.14    0.09
   2   1  12   -0.06    0.12
   4  -2 -12    1.09    0.22
   4  -2 -12    0.92    0.13
   4  -2 -12    0.89    0.16
  -4   2  12    1.07    0.15
   3  -2 -12    1.35    0.18
   3  -2 -12    1.15    0.18
   3  -2 -12    1.07    0.15
   3  -2 -12    1.00    0.11
   3  -2 -12    0.94    0.13
  -3   2  12    1.14    0.13
   2  -2 -12    1.48    0.18
   2  -2 -12    1.32    0.19
   2  -2 -12    1.44    0.13
   2  -2 -12    1.11    0.18
   2  -2 -12    1.46    0.11
  -2   2  12    1.25    0.12
   1  -2 -12   10.00    0.35
   1  -2 -12    9.65    0.34
   1  -2 -12    9.91    0.42
   1  -2 -12   10.14    0.43
   1  -2 -12    9.99    0.30
  -1   2  12   10.07    0.33
  -1   2  12   10.51    0.33
   0  -2 -12    8.79    0.32
   0  -2 -12    8.92    0.33
   0  -2 -12    8.79    0.41
   0  -2 -12    8.83    0.32
   0  -2 -12    9.04    0.38
   0  -2 -12    8.52    0.28
   0   2  12    9.19    0.32
  -1  -2 -12    0.62    0.11
  -1  -2 -12    0.63    0.13
  -1  -2 -12    0.48    0.16
  -1  -2 -12    0.84    0.13
  -1  -2 -12    0.52    0.15
   1   2  12    0.67    0.13
   1   2  12    0.62    0.08
   3  -3 -12    1.70    0.17
   3  -3 -12    2.15    0.22
   3  -3 -12    1.80    0.18
   3  -3 -12    1.82    0.15
  -3   3  12    1.70    0.16
   2  -3 -12    9.82    0.40
   2  -3 -12    8.43    0.40
   2  -3 -12    8.84    0.29
   2  -3 -12    8.56    0.33
   2  -3 -12    7.24    0.42
  -2   3  12    8.99    0.24
  -2   3  12    8.81    0.31
   1  -3 -12    3.10    0.21
   1  -3 -12    3.18    0.26
   1  -3 -12    3.03    0.25
   1  -3 -12    2.73    0.16
   1  -3 -12    2.77    0.19
  -1   3  12    2.86    0.13
  -1   3  12    3.02    0.21
   0  -3 -12   -0.05    0.10
   0  -3 -12    0.17    0.11
   0  -3 -12    0.05    0.12
   0  -3 -12    0.01    0.09
   0  -3 -12    0.39    0.16
   0  -3 -12   -0.10    0.10
   0   3  12   -0.01    0.06
   0   3  12    0.09    0.11
  -1  -3 -12    4.58    0.23
  -1  -3 -12    4.42    0.33
  -1  -3 -12    4.53    0.27
   1   3  12    4.73    0.26
   1   3  12    5.31    0.19
   3  -4 -12    1.74    0.18
   3  -4 -12    1.77    0.15
   3  -4 -12    1.03    0.23
  -3   4  12    1.57    0.17
   2  -4 -12    2.06    0.22
   2  -4 -12    1.66    0.24
   2  -4 -12    1.85    0.17
   2  -4 -12    1.91    0.23
   2  -4 -12    1.95    0.15
  -2   4  12    1.74    0.11
  -2   4  12    1.84    0.17
   1  -4 -12    2.53    0.21
   1  -4 -12    2.93    0.26
   1  -4 -12    2.51    0.20
   1  -4 -12    2.90    0.26
   1  -4 -12    2.67    0.17
  -1   4  12    2.68    0.21
  -1   4  12    2.73    0.14
   0  -4 -12    2.61    0.22
   0  -4 -12    2.34    0.18
   0  -4 -12    2.91    0.26
   0  -4 -12    2.48    0.21
   0   4  12    2.31    0.18
   0   4  12    2.42    0.14
  -1  -4 -12    1.77    0.20
  -1  -4 -12    2.03    0.17
  -1  -4 -12    2.11    0.26
   1   4  12    2.13    0.19
   1   4  12    2.36    0.15
   3  -5 -12   -0.38    0.18
   3  -5 -12    0.04    0.12
   3  -5 -12   -0.16    0.12
  -3   5  12    0.20    0.14
   2  -5 -12    2.36    0.18
   2  -5 -12    1.83    0.26
   2  -5 -12    2.48    0.20
  -2   5  12    2.48    0.20
   1  -5 -12    1.12    0.17
   1  -5 -12    1.56    0.15
   1  -5 -12    1.28    0.23
  -1   5  12    1.27    0.17
  -1   5  12    1.57    0.11
   0  -5 -12    7.80    0.35
   0  -5 -12    7.72    0.32
   0  -5 -12    8.70    0.42
   0   5  12    7.83    0.33
   0   5  12    8.36    0.26
   2  -6 -12    2.05    0.21
   2  -6 -12    2.11    0.18
   2  -6 -12    2.62    0.27
  -2   6  12    1.98    0.21
   1  -6 -12    0.99    0.23
   1  -6 -12    1.11    0.18
   1  -6 -12    1.01    0.15
  -1   6  12    1.05    0.11
  -1   6  12    1.01    0.16
   0  -6 -12    0.49    0.18
   0  -6 -12    0.09    0.14
   0  -6 -12    0.21    0.13
   0   6  12    0.01    0.13
   0   6  12    0.12    0.09
   1   8 -13    0.18    0.12
   1   8 -13    0.04    0.11
   0   8 -13    1.27    0.15
   0   8 -13    1.27    0.14
   2   7 -13    1.02    0.13
   2   7 -13    0.99    0.13
   1   7 -13    1.95    0.16
   1   7 -13    1.73    0.16
   0   7 -13    5.34    0.22
   0   7 -13    5.03    0.24
  -1   7 -13    2.53    0.11
  -1   7 -13    2.81    0.23
  -1   7 -13    2.43    0.20
  -1   7 -13    2.63    0.12
   2   6 -13    0.53    0.10
   2   6 -13    0.20    0.10
   1   6 -13    4.55    0.17
   1   6 -13    4.17    0.18
   0   6 -13    1.88    0.15
   0   6 -13    2.14    0.13
  -1   6 -13    0.36    0.14
  -1   6 -13    0.47    0.06
  -1   6 -13    0.53    0.06
  -1   6 -13    0.43    0.13
   3   5 -13    4.54    0.27
   3   5 -13    4.43    0.31
   3   5 -13    5.02    0.20
   3   5 -13    4.55    0.20
   2   5 -13    1.98    0.15
   2   5 -13    1.84    0.17
   0   5 -13    3.51    0.16
   0   5 -13    3.19    0.16
  -1   5 -13    6.08    0.27
  -1   5 -13    5.30    0.27
  -1   5 -13    5.42    0.18
  -1   5 -13    5.62    0.18
   3   4 -13    4.76    0.26
   3   4 -13    4.71    0.27
   3   4 -13    5.49    0.29
   3   4 -13    5.34    0.21
   3   4 -13    4.89    0.20
   2   4 -13    0.00    0.08
   2   4 -13   -0.04    0.09
  -1  -4  13    4.94    0.24
   0   4 -13    9.74    0.33
  -1   4 -13    2.37    0.13
  -1   4 -13    2.44    0.20
  -1   4 -13    2.39    0.12
  -1   4 -13    2.24    0.20
   3   3 -13   -0.17    0.12
   3   3 -13   -0.09    0.12
   3   3 -13   -0.04    0.08
   3   3 -13    0.03    0.08
   3   3 -13    0.02    0.08
   2   3 -13    2.24    0.16
   2   3 -13    2.22    0.15
   1   3 -13    5.12    0.19
   1   3 -13    4.83    0.20
  -1  -3  13    5.41    0.24
   0   3 -13    0.02    0.08
   0   3 -13    0.08    0.08
  -1   3 -13    3.01    0.21
  -1   3 -13    2.96    0.15
  -1   3 -13    2.83    0.15
   3   2 -13    2.16    0.15
   3   2 -13    2.44    0.20
   3   2 -13    2.07    0.19
   3   2 -13    1.96    0.14
  -3  -2  13    2.35    0.15
   2   2 -13    4.32    0.21
   2   2 -13    4.15    0.22
   2   2 -13    4.44    0.14
   1   2 -13    0.18    0.10
   1   2 -13    0.15    0.09
  -1  -2  13    0.08    0.11
   0   2 -13    5.47    0.24
   0   2 -13    5.25    0.23
   0  -2  13    5.59    0.24
  -1   2 -13    6.74    0.32
  -1   2 -13    7.19    0.25
  -1   2 -13    6.49    0.26
   1  -2  13    7.09    0.25
   3   1 -13    2.19    0.15
   3   1 -13    2.06    0.21
   3   1 -13    2.11    0.19
   3   1 -13    2.44    0.17
  -3  -1  13    2.45    0.16
   2   1 -13    0.07    0.08
   2   1 -13   -0.02    0.10
   2   1 -13    0.03    0.12
   2   1 -13    0.02    0.06
  -2  -1  13    0.03    0.08
  -2  -1  13   -0.01    0.06
   1   1 -13    5.29    0.25
   1   1 -13    5.83    0.26
   1   1 -13    5.41    0.16
   0   1 -13   10.79    0.32
   0   1 -13   10.53    0.40
   0   1 -13   10.65    0.31
   0   1 -13   10.21    0.39
   0  -1  13   10.69    0.32
   0  -1  13   10.81    0.37
  -1   1 -13    0.01    0.09
  -1   1 -13   -0.05    0.09
  -1   1 -13   -0.20    0.12
  -1   1 -13   -0.02    0.12
   1  -1  13    0.04    0.09
   3   0 -13    1.14    0.17
   3   0 -13    1.16    0.14
   3   0 -13    0.95    0.18
   3   0 -13    1.16    0.13
  -3   0  13    1.14    0.12
   2   0 -13    4.81    0.19
   2   0 -13    4.59    0.26
   2   0 -13    4.83    0.25
   2   0 -13    5.29    0.23
  -2   0  13    5.22    0.19
   1   0 -13    4.73    0.26
   1   0 -13    4.75    0.18
   1   0 -13    5.07    0.18
   1   0 -13    4.25    0.26
  -1   0  13    4.78    0.17
  -1   0  13    4.95    0.18
   0   0 -13    0.81    0.13
   0   0 -13    0.77    0.14
   0   0 -13    0.60    0.09
   0   0 -13    0.83    0.10
   0   0  13    0.69    0.10
  -1   0 -13    2.58    0.24
  -1   0 -13    2.57    0.18
  -1   0 -13    2.22    0.17
  -1   0 -13    2.36    0.22
   1   0  13    2.35    0.19
   3  -1 -13    3.84    0.17
   3  -1 -13    3.71    0.23
   3  -1 -13    3.49    0.26
   3  -1 -13    3.32    0.21
   3  -1 -13    4.23    0.28
  -3   1  13    4.04    0.21
   2  -1 -13    2.83    0.21
   2  -1 -13    2.38    0.22
   2  -1 -13    2.42    0.21
   2  -1 -13    2.38    0.15
  -2   1  13    2.54    0.16
   1  -1 -13    0.52    0.10
   1  -1 -13    0.80    0.15
   1  -1 -13    0.65    0.09
   1  -1 -13    0.74    0.15
  -1   1  13    0.64    0.10
   0  -1 -13    9.59    0.34
   0  -1 -13    9.82    0.41
   0  -1 -13    9.95    0.40
   0  -1 -13   10.19    0.33
   0   1  13   10.09    0.34
  -1  -1 -13    1.02    0.13
  -1  -1 -13    1.10    0.17
  -1  -1 -13    0.90    0.14
  -1  -1 -13    1.09    0.18
  -1  -1 -13    1.09    0.11
   1   1  13    0.84    0.13
   3  -2 -13    1.18    0.17
   3  -2 -13    1.06    0.16
   3  -2 -13    0.85    0.11
   3  -2 -13    0.73    0.13
   3  -2 -13    0.82    0.18
  -3   2  13    0.82    0.13
   2  -2 -13    2.82    0.25
   2  -2 -13    2.76    0.25
   2  -2 -13    2.60    0.18
   2  -2 -13    2.94    0.23
   2  -2 -13    3.02    0.14
  -2   2  13    2.79    0.17
   1  -2 -13    2.28    0.13
   1  -2 -13    2.74    0.25
   1  -2 -13    2.37    0.17
   1  -2 -13    2.63    0.19
   1  -2 -13    2.53    0.23
  -1   2  13    2.66    0.18
  -1   2  13    2.57    0.18
   0  -2 -13    1.56    0.15
   0  -2 -13    1.69    0.14
   0  -2 -13    1.51    0.12
   0  -2 -13    1.54    0.18
   0  -2 -13    1.80    0.20
   0   2  13    1.66    0.15
  -1  -2 -13    0.15    0.12
  -1  -2 -13    0.22    0.13
  -1  -2 -13    0.07    0.09
  -1  -2 -13    0.05    0.16
   1   2  13    0.17    0.12
   3  -3 -13    1.78    0.17
   3  -3 -13    2.01    0.24
   3  -3 -13    2.10    0.15
  -3   3  13    1.68    0.16
   2  -3 -13    0.83    0.11
   2  -3 -13    0.89    0.13
   2  -3 -13    0.91    0.20
   2  -3 -13    0.77    0.15
   2  -3 -13    0.94    0.21
  -2   3  13    1.01    0.13
   1  -3 -13    6.94    0.29
   1  -3 -13    6.77    0.24
   1  -3 -13    6.18    0.36
   1  -3 -13    7.01    0.37
   1  -3 -13    6.06    0.28
  -1   3  13    6.65    0.28
  -1   3  13    6.55    0.28
   0  -3 -13    0.17    0.12
   0  -3 -13    0.33    0.15
   0  -3 -13    0.34    0.16
   0  -3 -13    0.38    0.12
   0  -3 -13    0.29    0.12
   0  -3 -13    0.27    0.09
   0   3  13    0.24    0.12
   2  -4 -13    0.53    0.11
   2  -4 -13    0.43    0.13
   2  -4 -13    0.43    0.15
   2  -4 -13    0.01    0.20
  -2   4  13    0.53    0.13
  -2   4  13    0.47    0.09
   1  -4 -13    0.12    0.12
   1  -4 -13    0.01    0.19
   1  -4 -13    0.08    0.12
   1  -4 -13   -0.01    0.09
  -1   4  13    0.14    0.08
  -1   4  13    0.02    0.12
  -1   4  13   -0.04    0.12
   0  -4 -13    7.29    0.28
   0  -4 -13    7.03    0.32
   0  -4 -13    8.14    0.40
   0   4  13    7.00    0.31
   0   4  13    7.43    0.24
   1  -5 -13    3.63    0.33
   1  -5 -13    3.74    0.21
   1  -5 -13    3.10    0.24
  -1   5  13    3.16    0.23
  -1   5  13    3.91    0.18
   0   6 -14    0.56    0.09
   0   6 -14    0.46    0.10
   2   5 -14    1.47    0.15
   2   5 -14    1.71    0.15
   0   5 -14    2.00    0.13
   0   5 -14    1.75    0.14
   2   4 -14    0.35    0.10
   2   4 -14    0.26    0.09
   0   4 -14    4.82    0.21
   2   3 -14    3.13    0.20
   2   3 -14    3.48    0.18
   1   3 -14    4.59    0.21
   1   3 -14    4.72    0.21
   0   3 -14    0.06    0.09
   0   3 -14    0.03    0.09
   2   2 -14    1.98    0.18
   2   2 -14    1.88    0.17
   1   2 -14    0.52    0.12
   1   2 -14    0.64    0.12
   0   2 -14    3.80    0.21
   0   2 -14    3.59    0.20
   2   1 -14    1.21    0.08
   2   1 -14    1.16    0.09
   2   1 -14    1.16    0.15
   2   1 -14    1.83    0.17
   1   1 -14    9.75    0.38
   1   1 -14    9.70    0.39
   0   1 -14    0.46    0.07
   0   1 -14    0.44    0.07
   0   1 -14    0.49    0.13
   0   1 -14    0.65    0.12
   2   0 -14    1.48    0.12
   2   0 -14    1.44    0.19
   2   0 -14    1.70    0.18
   2   0 -14    1.71    0.14
   1   0 -14    0.95    0.08
   1   0 -14    0.84    0.08
   1   0 -14    0.89    0.16
   1   0 -14    1.01    0.17
   0   0 -14    0.08    0.13
   0   0 -14   -0.01    0.12
   0   0 -14    0.02    0.08
   0   0 -14   -0.03    0.08
   2  -1 -14    2.74    0.24
   2  -1 -14    2.78    0.17
   2  -1 -14    2.77    0.19
   2  -1 -14    2.85    0.26
  -2   1  14    2.98    0.17
   1  -1 -14    0.91    0.17
   1  -1 -14    0.75    0.10
   1  -1 -14    0.64    0.17
   1  -1 -14    0.82    0.10
   1  -1 -14    0.77    0.10
  -1   1  14    0.97    0.11
   0  -1 -14    6.09    0.25
   0  -1 -14    6.67    0.26
   0  -1 -14    6.18    0.33
   0  -1 -14    6.34    0.33
   0   1  14    6.86    0.27
   2  -2 -14   -0.07    0.11
   2  -2 -14    0.07    0.17
   2  -2 -14    0.25    0.11
   2  -2 -14    0.04    0.16
  -2   2  14    0.06    0.10
   1  -2 -14    7.61    0.41
   1  -2 -14    8.19    0.30
   1  -2 -14    8.48    0.32
   1  -2 -14    8.70    0.41
  -1   2  14    8.79    0.30
   0   0   0    0.00    0.00
;
loop_
_space_group_symop_operation_xyz
'x, y, z'
'-x, -y, -z'
loop_
_atom_site_label
_atom_site_type_symbol
_atom_site_fract_x
_atom_site_fract_y
_atom_site_fract_z
_atom_site_U_iso_or_equiv
_atom_site_adp_type
_atom_site_occupancy
_atom_site_site_symmetry_order
_atom_site_calc_flag
_atom_site_refinement_flags_posn
_atom_site_refinement_flags_adp
_atom_site_refinement_flags_occupancy
_atom_site_disorder_assembly
_atom_site_disorder_group
Br1 Br 0.13721(4) 0.17993(2) 0.01884(2) 0.03753(7) Uani 1 1 d . . . . .
O1 O 0.7786(3) 0.13535(10) 0.53551(10) 0.0288(2) Uani 1 1 d . . . . .
O2 O 0.9251(3) 0.20150(12) 0.73466(11) 0.0371(3) Uani 1 1 d . . . . .
O3 O 0.3131(3) 0.48279(11) 0.70865(11) 0.0357(3) Uani 1 1 d . . . . .
O4 O 0.1861(3) 0.40602(11) 0.48776(11) 0.0319(2) Uani 1 1 d . . . . .
H4 H 0.187571 0.452297 0.555097 0.048 Uiso 1 1 calc R U . . .
C1 C 0.7601(4) 0.21857(15) 0.64011(14) 0.0268(3) Uani 1 1 d . . . . .
C2 C 0.5496(3) 0.31471(14) 0.62429(13) 0.0246(3) Uani 1 1 d . . . . .
C3 C 0.3821(3) 0.32300(13) 0.50633(14) 0.0242(3) Uani 1 1 d . . . . .
C4 C 0.4234(3) 0.23887(14) 0.40000(13) 0.0233(3) Uani 1 1 d . . . . .
C5 C 0.2745(4) 0.24839(15) 0.27927(14) 0.0266(3) Uani 1 1 d . . . . .
H5 H 0.140138 0.311862 0.264499 0.032 Uiso 1 1 calc R U . . .
C6 C 0.3262(4) 0.16441(15) 0.18292(14) 0.0274(3) Uani 1 1 d . . . . .
C7 C 0.5157(4) 0.06842(15) 0.20280(15) 0.0298(3) Uani 1 1 d . . . . .
H7 H 0.543009 0.009749 0.134778 0.036 Uiso 1 1 calc R U . . .
C8 C 0.6637(4) 0.05881(15) 0.32171(15) 0.0289(3) Uani 1 1 d . . . . .
H8 H 0.793860 -0.006008 0.336341 0.035 Uiso 1 1 calc R U . . .
C9 C 0.6186(3) 0.14544(14) 0.41908(14) 0.0240(3) Uani 1 1 d . . . . .
C10 C 0.5063(4) 0.40395(16) 0.72819(15) 0.0291(3) Uani 1 1 d . . . . .
C11 C 0.6796(5) 0.4088(2) 0.85630(16) 0.0421(4) Uani 1 1 d . . . . .
H11A H 0.623638 0.329581 0.885067 0.063 Uiso 1 1 calc R U . . .
H11B H 0.621464 0.479164 0.909931 0.063 Uiso 1 1 calc R U . . .
H11C H 0.908764 0.421006 0.859012 0.063 Uiso 1 1 calc R U . . .
loop_
_atom_site_aniso_label
_atom_site_aniso_U_11
_atom_site_aniso_U_22
_atom_site_aniso_U_33
_atom_site_aniso_U_23
_atom_site_aniso_U_13
_atom_site_aniso_U_12
Br1 0.04524(11) 0.04259(11) 0.02291(9) 0.00495(7) 0.00079(7) 0.00872(7)
O1 0.0335(6) 0.0292(5) 0.0244(5) 0.0054(4) 0.0020(4) 0.0133(4)
O2 0.0426(7) 0.0427(7) 0.0257(6) 0.0082(5) -0.0007(5) 0.0152(5)
O3 0.0398(6) 0.0345(6) 0.0336(6) -0.0004(5) 0.0098(5) 0.0127(5)
O4 0.0345(6) 0.0321(6) 0.0293(6) 0.0007(5) 0.0033(5) 0.0173(5)
C1 0.0280(7) 0.0275(7) 0.0259(7) 0.0064(6) 0.0051(6) 0.0059(6)
C2 0.0242(7) 0.0258(7) 0.0243(7) 0.0043(6) 0.0054(5) 0.0045(6)
C3 0.0229(7) 0.0233(7) 0.0269(7) 0.0043(6) 0.0052(5) 0.0047(5)
C4 0.0231(7) 0.0227(7) 0.0239(7) 0.0030(5) 0.0044(5) 0.0038(5)
C5 0.0266(7) 0.0262(7) 0.0273(7) 0.0058(6) 0.0036(6) 0.0058(6)
C6 0.0279(7) 0.0303(8) 0.0227(7) 0.0045(6) 0.0027(6) 0.0023(6)
C7 0.0331(8) 0.0290(8) 0.0268(7) -0.0007(6) 0.0081(6) 0.0048(6)
C8 0.0312(8) 0.0254(7) 0.0314(8) 0.0038(6) 0.0069(6) 0.0099(6)
C9 0.0236(7) 0.0247(7) 0.0241(7) 0.0053(5) 0.0036(5) 0.0047(5)
C10 0.0290(7) 0.0322(8) 0.0272(7) 0.0037(6) 0.0092(6) 0.0034(6)
C11 0.0461(10) 0.0564(12) 0.0240(8) 0.0016(7) 0.0075(7) 0.0136(9)
loop_
_atom_type_symbol
_atom_type_description
_atom_type_scat_dispersion_real
_atom_type_scat_dispersion_imag
_atom_type_scat_source
C C 0.0033 0.0016 'International Tables Vol C Tables 4.2.6.8 and 6.1.1.4'
H H 0.0000 0.0000 'International Tables Vol C Tables 4.2.6.8 and 6.1.1.4'
O O 0.0106 0.0060 'International Tables Vol C Tables 4.2.6.8 and 6.1.1.4'
Br Br -0.2901 2.4595 'International Tables Vol C Tables 4.2.6.8 and 6.1.1.4'
loop_
_geom_angle_atom_site_label_1
_geom_angle_atom_site_label_2
_geom_angle_atom_site_label_3
_geom_angle
_geom_angle_site_symmetry_1
_geom_angle_site_symmetry_3
C9 O1 C1 122.50(12) . .
C3 O4 H4 109.5 . .
O2 C1 O1 114.93(14) . .
O2 C1 C2 127.57(15) . .
O1 C1 C2 117.50(13) . .
C3 C2 C1 119.80(13) . .
C3 C2 C10 118.37(14) . .
C1 C2 C10 121.82(13) . .
O4 C3 C2 122.07(14) . .
O4 C3 C4 117.47(13) . .
C2 C3 C4 120.46(13) . .
C9 C4 C5 119.48(14) . .
C9 C4 C3 118.10(13) . .
C5 C4 C3 122.42(13) . .
C6 C5 C4 118.78(14) . .
C6 C5 H5 120.6 . .
C4 C5 H5 120.6 . .
C5 C6 C7 121.53(14) . .
C5 C6 Br1 119.12(12) . .
C7 C6 Br1 119.35(12) . .
C8 C7 C6 119.88(14) . .
C8 C7 H7 120.1 . .
C6 C7 H7 120.1 . .
C7 C8 C9 118.76(14) . .
C7 C8 H8 120.6 . .
C9 C8 H8 120.6 . .
O1 C9 C8 116.99(13) . .
O1 C9 C4 121.49(13) . .
C8 C9 C4 121.52(14) . .
O3 C10 C2 118.66(14) . .
O3 C10 C11 117.67(15) . .
C2 C10 C11 123.67(15) . .
C10 C11 H11A 109.5 . .
C10 C11 H11B 109.5 . .
H11A C11 H11B 109.5 . .
C10 C11 H11C 109.5 . .
H11A C11 H11C 109.5 . .
H11B C11 H11C 109.5 . .
loop_
_geom_bond_atom_site_label_1
_geom_bond_atom_site_label_2
_geom_bond_distance
_geom_bond_site_symmetry_2
Br1 C6 1.8966(15) .
O1 C9 1.3764(17) .
O1 C1 1.3883(19) .
O2 C1 1.2049(19) .
O3 C10 1.258(2) .
O4 C3 1.2997(18) .
O4 H4 0.8400 .
C1 C2 1.449(2) .
C2 C3 1.397(2) .
C2 C10 1.451(2) .
C3 C4 1.438(2) .
C4 C9 1.387(2) .
C4 C5 1.402(2) .
C5 C6 1.371(2) .
C5 H5 0.9500 .
C6 C7 1.395(2) .
C7 C8 1.383(2) .
C7 H7 0.9500 .
C8 C9 1.385(2) .
C8 H8 0.9500 .
C10 C11 1.475(2) .
C11 H11A 0.9800 .
C11 H11B 0.9800 .
C11 H11C 0.9800 .
loop_
_geom_hbond_atom_site_label_D
_geom_hbond_atom_site_label_H
_geom_hbond_atom_site_label_A
_geom_hbond_distance_DH
_geom_hbond_distance_HA
_geom_hbond_distance_DA
_geom_hbond_angle_DHA
_geom_hbond_site_symmetry_A
_geom_hbond_publ_flag
O4 H4 O3 0.84 1.67 2.4278(17) 148 . yes
O4 H4 O4 0.84 2.35 2.717(2) 107 2_566 yes
loop_
_geom_torsion_atom_site_label_1
_geom_torsion_atom_site_label_2
_geom_torsion_atom_site_label_3
_geom_torsion_atom_site_label_4
_geom_torsion
_geom_torsion_site_symmetry_1
_geom_torsion_site_symmetry_2
_geom_torsion_site_symmetry_3
_geom_torsion_site_symmetry_4
C9 O1 C1 O2 -176.60(14) . . . .
C9 O1 C1 C2 3.3(2) . . . .
O2 C1 C2 C3 178.06(16) . . . .
O1 C1 C2 C3 -1.8(2) . . . .
O2 C1 C2 C10 -1.9(3) . . . .
O1 C1 C2 C10 178.21(13) . . . .
C1 C2 C3 O4 178.68(14) . . . .
C10 C2 C3 O4 -1.4(2) . . . .
C1 C2 C3 C4 -1.6(2) . . . .
C10 C2 C3 C4 178.34(13) . . . .
O4 C3 C4 C9 -176.59(14) . . . .
C2 C3 C4 C9 3.7(2) . . . .
O4 C3 C4 C5 3.5(2) . . . .
C2 C3 C4 C5 -176.27(14) . . . .
C9 C4 C5 C6 0.1(2) . . . .
C3 C4 C5 C6 -179.99(14) . . . .
C4 C5 C6 C7 1.7(2) . . . .
C4 C5 C6 Br1 -177.93(11) . . . .
C5 C6 C7 C8 -1.9(2) . . . .
Br1 C6 C7 C8 177.77(12) . . . .
C6 C7 C8 C9 0.2(2) . . . .
C1 O1 C9 C8 178.17(14) . . . .
C1 O1 C9 C4 -1.2(2) . . . .
C7 C8 C9 O1 -177.82(14) . . . .
C7 C8 C9 C4 1.6(2) . . . .
C5 C4 C9 O1 177.64(13) . . . .
C3 C4 C9 O1 -2.3(2) . . . .
C5 C4 C9 C8 -1.7(2) . . . .
C3 C4 C9 C8 178.31(14) . . . .
C3 C2 C10 O3 2.1(2) . . . .
C1 C2 C10 O3 -178.00(15) . . . .
C3 C2 C10 C11 -177.17(16) . . . .
C1 C2 C10 C11 2.8(2) . . . .
