#------------------------------------------------------------------------------
#$Date: 2022-05-06 12:06:53 +0300 (Fri, 06 May 2022) $
#$Revision: 275099 $
#$URL: file:///home/coder/svn-repositories/cod/cif/8/10/51/8105166.cif $
#------------------------------------------------------------------------------
#
# This file is available in the Crystallography Open Database (COD),
# http://www.crystallography.net/
#
# All data on this site have been placed in the public domain by the
# contributors.
#
data_8105166
loop_
_publ_author_name
'Cai, Bin'
'Zhu, Meng-En'
'Meng, Yu-Ning'
'Li, Kun'
_publ_section_title
;
 The crystal structure of 2-aminoisophthalic acid, C8H7NO4
;
_journal_issue                   3
_journal_name_full
'Zeitschrift f\"ur Kristallographie - New Crystal Structures'
_journal_page_first              543
_journal_page_last               544
_journal_paper_doi               10.1515/ncrs-2019-0783
_journal_volume                  235
_journal_year                    2020
_chemical_formula_moiety         'C8 H7 N O4'
_chemical_formula_sum            'C8 H7 N O4'
_chemical_formula_weight         181.15
_space_group_crystal_system      monoclinic
_space_group_IT_number           15
_space_group_name_Hall           '-C 2yc'
_space_group_name_H-M_alt        'C 1 2/c 1'
_atom_sites_solution_hydrogens   mixed
_cell_angle_alpha                90
_cell_angle_beta                 99.066(5)
_cell_angle_gamma                90
_cell_formula_units_Z            4
_cell_length_a                   4.9752(11)
_cell_length_b                   14.167(3)
_cell_length_c                   10.999(2)
_cell_measurement_reflns_used    1717
_cell_measurement_temperature    150(2)
_cell_measurement_theta_max      26.24
_cell_measurement_theta_min      2.88
_cell_volume                     765.6(3)
_computing_cell_refinement       'SAINT v8.37A (Bruker, 2015) [1]'
_computing_data_collection       'Bruker APEX-II'
_computing_data_reduction        'SAINT v8.37A (Bruker, 2015) [1]'
_computing_molecular_graphics    'Olex2 (Dolomanov et al., 2009) [4]'
_computing_publication_material  'Olex2 (Dolomanov et al., 2009) [4]'
_computing_structure_refinement  'olex2.refine (Bourhis et al., 2015) [3]'
_computing_structure_solution    'ShelXT (Sheldrick, 2015) [2]'
_diffrn_ambient_temperature      150.01
_diffrn_measured_fraction_theta_full 0.983
_diffrn_measured_fraction_theta_max 0.983
_diffrn_measurement_device       'Bruker APEX-II diffractometer'
_diffrn_measurement_device_type  'Bruker APEX-II CCD'
_diffrn_measurement_method       '\f and \w scans'
_diffrn_radiation_type           MoK\a
_diffrn_radiation_wavelength     0.71073
_diffrn_reflns_av_R_equivalents  0.0747
_diffrn_reflns_av_unetI/netI     0.0370
_diffrn_reflns_Laue_measured_fraction_full 0.983
_diffrn_reflns_Laue_measured_fraction_max 0.983
_diffrn_reflns_limit_h_max       5
_diffrn_reflns_limit_h_min       -5
_diffrn_reflns_limit_k_max       16
_diffrn_reflns_limit_k_min       -16
_diffrn_reflns_limit_l_max       12
_diffrn_reflns_limit_l_min       -13
_diffrn_reflns_number            5580
_diffrn_reflns_point_group_measured_fraction_full 0.983
_diffrn_reflns_point_group_measured_fraction_max 0.983
_diffrn_reflns_theta_full        25.198
_diffrn_reflns_theta_max         25.198
_diffrn_reflns_theta_min         2.876
_diffrn_standards_number         0
_exptl_absorpt_coefficient_mu    0.129
_exptl_absorpt_correction_T_max  0.7454
_exptl_absorpt_correction_T_min  0.6119
_exptl_absorpt_correction_type   multi-scan
_exptl_absorpt_process_details
;
SADABS-2016/2 (Bruker,2016/2) was used for absorption correction.
wR2(int) was 0.0899 before and 0.0723 after correction.
The Ratio of minimum to maximum transmission is 0.8209.
The \l/2 correction factor is Not present.
;
_exptl_crystal_colour            colorless
_exptl_crystal_density_diffrn    1.572
_exptl_crystal_density_method    'not measured'
_exptl_crystal_description       needle
_exptl_crystal_F_000             376
_exptl_crystal_size_max          0.3
_exptl_crystal_size_mid          0.25
_exptl_crystal_size_min          0.1
_refine_diff_density_max         0.364
_refine_diff_density_min         -0.345
_refine_diff_density_rms         0.077
_refine_ls_extinction_coef       .
_refine_ls_extinction_method     none
_refine_ls_goodness_of_fit_ref   1.115
_refine_ls_hydrogen_treatment    mixed
_refine_ls_matrix_type           full
_refine_ls_number_parameters     66
_refine_ls_number_reflns         675
_refine_ls_number_restraints     0
_refine_ls_restrained_S_all      1.115
_refine_ls_R_factor_all          0.0837
_refine_ls_R_factor_gt           0.0571
_refine_ls_shift/su_max          0.000
_refine_ls_shift/su_mean         0.000
_refine_ls_structure_factor_coef Fsqd
_refine_ls_weighting_details
'w=1/[\s^2^(Fo^2^)+(0.0951P)^2^+0.4674P] where P=(Fo^2^+2Fc^2^)/3'
_refine_ls_weighting_scheme      calc
_refine_ls_wR_factor_gt          0.1495
_refine_ls_wR_factor_ref         0.1630
_reflns_Friedel_coverage         0.000
_reflns_Friedel_fraction_full    .
_reflns_Friedel_fraction_max     .
_reflns_number_gt                487
_reflns_number_total             675
_reflns_threshold_expression     'I > 2\s(I)'
_cod_data_source_file            suppl_ncrs-2019-0783_suppl.cif
_cod_data_source_block           1
_cod_original_sg_symbol_H-M      'C 2/c'
_cod_database_code               8105166
_shelx_space_group_comment
;
The symmetry employed for this shelxl refinement is uniquely defined
by the following loop, which should always be used as a source of
symmetry information in preference to the above space-group names.
They are only intended as comments.
;
_shelx_estimated_absorpt_t_max   0.987
_shelx_estimated_absorpt_t_min   0.962
_olex2_refinement_description
;
1. Fixed Uiso
 At 1.2 times of:
  All C(H) groups
 At 1.5 times of:
  All O(H) groups
2.a Aromatic/amide H refined with riding coordinates:
 C3(H3), C4(H4)
2.b Idealised tetrahedral OH refined as rotating group:
 O2(H2)
;
_shelx_res_file
;
TITL mo_0624_3_0ma_a.res in C2/c
    1.res
    created by SHELXL-2018/3 at 15:11:00 on 25-Jun-2019
CELL 0.71073 4.9752 14.167 10.9989 90 99.066 90
ZERR 4 0.0011 0.0032 0.0021 0 0.005 0
LATT 7
SYMM -X,+Y,0.5-Z
SFAC C H N O
UNIT 32 28 4 16

L.S. 4
PLAN  20
SIZE 0.3 0.25 0.1
TEMP -123.14
BOND $H
fmap 2
acta
OMIT 0 50.4
REM <olex2.extras>
REM <HklSrc "%.\\1.hkl">
REM </olex2.extras>

WGHT    0.095100    0.467400
FVAR       0.57531
C1    1    0.563072    0.689532    0.597019    11.00000    0.01598    0.02832 =
         0.01604   -0.00225    0.00190    0.00036
C2    1    0.789759    0.641064    0.675083    11.00000    0.01543    0.02291 =
         0.01572    0.00061    0.00088    0.00062
C3    1    0.796819    0.542916    0.676278    11.00000    0.01888    0.02481 =
         0.02330   -0.00289   -0.00143   -0.00314
AFIX  43
H3    2    0.658099    0.509021    0.624983    11.00000   -1.20000
AFIX   0
C4    1    1.000000    0.493081    0.750000    10.50000    0.02113    0.02213 =
         0.03164    0.00000   -0.00192    0.00000
AFIX  43
H4    2    1.000004    0.426024    0.749999    10.50000   -1.20000
AFIX   0
C5    1    1.000000    0.693694    0.750000    10.50000    0.01670    0.02605 =
         0.01583    0.00000    0.00366    0.00000
H1    2    0.880394    0.822295    0.702778    11.00000    0.03646
N1    3    1.000000    0.789046    0.750000    10.50000    0.01812    0.02269 =
         0.02143    0.00000   -0.00526    0.00000
O1    4    0.532991    0.776168    0.592208    11.00000    0.01895    0.02383 =
         0.02661   -0.00191   -0.00561    0.00158
O2    4    0.389732    0.631445    0.531107    11.00000    0.02265    0.02495 =
         0.02908   -0.00307   -0.00789    0.00062
AFIX 147
H2    2    0.258772    0.662500    0.493303    11.00000   -1.50000
AFIX   0
HKLF 4




REM  mo_0624_3_0ma_a.res in C2/c
REM wR2 = 0.1630, GooF = S = 1.115, Restrained GooF = 1.115 for all data
REM R1 = 0.0571 for 487 Fo > 4sig(Fo) and 0.0837 for all 675 data
REM 66 parameters refined using 0 restraints

END

WGHT      0.0951      0.4674

REM Highest difference peak  0.364,  deepest hole -0.345,  1-sigma level  0.077
Q1    1   0.3775  0.5489  0.5300  11.00000  0.05    0.28
Q2    1   0.1324  0.6849  0.4579  11.00000  0.05    0.24
Q3    1   1.0541  0.4454  0.6192  11.00000  0.05    0.21
Q4    1   0.1566  0.5912  0.4733  11.00000  0.05    0.20
Q5    1   1.0000  0.4007  0.7500  10.50000  0.05    0.20
Q6    1   0.6666  0.8354  0.5227  11.00000  0.05    0.20
Q7    1   0.4076  0.7670  0.7219  11.00000  0.05    0.19
Q8    1   0.5587  0.8742  0.6224  11.00000  0.05    0.19
Q9    1   0.8177  0.6935  0.8615  11.00000  0.05    0.18
Q10   1   0.7375  0.5315  0.4482  11.00000  0.05    0.17
Q11   1   0.5678  0.6535  0.4434  11.00000  0.05    0.17
Q12   1   0.3738  0.7303  0.5504  11.00000  0.05    0.17
Q13   1   0.7879  0.4994  0.5303  11.00000  0.05    0.17
Q14   1   0.2488  0.6776  0.6549  11.00000  0.05    0.16
Q15   1   0.5000  0.5299  0.7500  10.50000  0.05    0.16
Q16   1   1.1645  0.3407  0.7959  11.00000  0.05    0.16
Q17   1   0.5785  0.4919  0.6018  11.00000  0.05    0.15
Q18   1   0.7621  0.7335  0.6808  11.00000  0.05    0.15
Q19   1   0.8795  0.5322  0.8974  11.00000  0.05    0.15
Q20   1   0.5928  0.6133  0.7936  11.00000  0.05    0.15
;
_shelx_hkl_file
;
  -2   0   1    1.30    2.10
  -2   0   1    2.90    2.60
   2   0  -1   -1.00    2.10
   2   0  -1   -0.10    2.30
  -4   0   2    5.10    4.80
  -4   0   2   13.10    6.60
   4   0  -2    7.30    5.40
   4   0  -2    1.50    5.10
   6   0  -3  -15.50   14.30
  -6   0   3    8.20   12.00
   6   0  -3   13.70   12.80
  -6   0   3  -22.30   20.60
   0   2   0 1944.21   70.79
   0   2   0 1909.91   70.69
   0   2   0 1851.61   70.49
   0  -2   0 1967.80   70.79
   0  -2   0 1971.50   70.79
   0  -2   0 1948.71   70.49
  -2   2   1   30.10    4.20
   2   2  -1   39.30    5.30
  -2   2   1   39.20    5.20
   2   2  -1   38.30    5.50
  -2  -2   1   32.40    4.30
  -2  -2   1   25.40    3.70
   2  -2  -1   32.20    4.30
   2  -2  -1   25.90    3.90
   4   2  -2   61.59    8.30
   4   2  -2   42.00   11.80
  -4   2   2   83.79   10.30
  -4   2   2   50.89    7.60
  -4  -2   2   57.19    8.20
   4  -2  -2   53.09    8.20
  -4  -2   2   97.69   13.30
   6   2  -3  186.68   27.10
  -6   2   3  212.98   27.60
  -6   2   3  293.67   41.30
   6   2  -3  196.58   28.50
   6  -2  -3  164.68   20.50
  -6  -2   3  241.48   27.20
  -6  -2   3  271.07   29.70
   6  -2  -3  144.99   18.90
   0   4   0   30.10    4.00
   0   4   0   34.10    3.80
   0   4   0   24.50    3.30
   0  -4   0   17.10    2.80
   0  -4   0   23.10    3.10
   0  -4   0   29.20    3.80
  -2   4   1    4.10    2.90
  -2   4   1    5.40    3.30
   2   4  -1    9.60    3.40
   2   4  -1   14.60    3.60
   2  -4  -1   13.70    3.50
   2  -4  -1    5.60    3.10
  -2  -4   1    8.20    3.40
   2  -4  -1    5.20    2.90
  -2  -4   1    8.60    3.00
   4   4  -2   73.49    9.30
  -4   4   2  108.39   15.70
  -4   4   2   92.39   12.50
   4   4  -2  104.39   13.80
  -4  -4   2   62.69    9.10
   4  -4  -2   73.19    9.90
  -4  -4   2  105.99   14.90
   4  -4  -2   94.09   13.70
  -6   4   3   21.40   37.00
   6   4  -3   27.10   14.40
   6   4  -3    9.00   13.50
  -6   4   3    9.00   14.00
   6  -4  -3   14.00   15.60
  -6  -4   3   16.10   14.80
   6  -4  -3   12.70   14.40
   6  -4  -3    5.60   24.90
  -6  -4   3   41.70   18.50
   0   6   0  643.64   26.40
   0   6   0  652.83   27.10
   0   6   0  623.14   27.00
   0  -6   0  631.74   26.40
   0  -6   0  640.94   27.40
   0  -6   0  622.14   27.20
  -2   6   1  628.24   27.60
  -2   6   1  554.94   26.40
   2   6  -1  568.34   26.70
   2   6  -1  621.94   26.60
   2   6  -1  597.44   26.70
   2  -6  -1  590.04   26.90
   2  -6  -1  665.03   27.30
  -2  -6   1  577.84   27.50
  -2  -6   1  571.44   27.00
   2  -6  -1  568.14   27.00
   4   6  -2   27.60    7.60
   4   6  -2   19.40    7.60
  -4  -6   2   46.90    9.30
   4  -6  -2   24.80    7.70
   4  -6  -2   25.10    8.00
  -4  -6   2    4.10    7.00
   4  -6  -2   22.60    7.80
   0   8   0   65.19    8.30
   0   8   0   66.69    7.90
   0   8   0   59.09    7.30
   0  -8   0   74.49    8.90
   0  -8   0   78.69    8.70
   0  -8   0   60.09    7.70
   2   8  -1    3.40    4.10
  -2   8   1   -3.20    3.70
   2   8  -1    0.40    4.00
   2   8  -1    0.60    4.00
  -2   8   1    0.00    3.60
  -2   8   1   -2.20    3.90
   2  -8  -1    7.40    4.60
  -2  -8   1    6.30    5.10
  -2  -8   1    3.10    4.30
   2  -8  -1    3.30    4.80
  -4   8   2   81.89   12.40
   4   8  -2   70.89   10.80
   4   8  -2   55.39    9.50
   4   8  -2   88.89   11.60
   4  -8  -2   78.49   11.10
   4  -8  -2   64.89   11.40
   4  -8  -2   70.79   10.50
   0  10   0    7.70    4.40
   0 -10   0    2.50    4.80
   2  10  -1    1.80    5.90
  -2  10   1   -6.00    4.30
   2  10  -1   -0.20    5.20
   2  10  -1   -3.00    4.70
  -2  10   1    3.70    6.20
  -2  10   1   -1.70    6.00
   2 -10  -1    7.10    5.60
   2 -10  -1  -10.70    5.80
   4  10  -2   11.30    9.40
  -4  10   2   -0.20    8.10
   4  10  -2    6.30    8.70
  -4  10   2   29.50   12.30
   4  10  -2    0.50    8.50
  -4 -10   2   22.50   13.30
  -4 -10   2   21.30   10.40
   4 -10  -2   11.70   10.50
   4 -10  -2   18.10   11.50
   4 -10  -2    9.00   12.80
   0  12   0  450.05   26.20
   0  12   0  466.95   24.50
   0  12   0  452.35   28.10
   0 -12   0  494.75   25.40
   0 -12   0  423.86   33.60
   0 -12   0  462.55   27.70
  -2  12   1   -4.00    6.40
   2  12  -1    2.80    6.70
  -2  12   1    5.80    9.80
   2  12  -1   -4.40    6.50
   2  12  -1    0.90    6.20
  -2  12   1    6.20    5.70
   2 -12  -1  -10.90    8.70
   2 -12  -1   -4.00    9.70
   2 -12  -1    1.90    7.30
  -2 -12   1   -9.30    8.60
   4  12  -2  -11.30   11.30
   4  12  -2    4.70   10.00
  -4  12   2  -15.90   15.90
   4  12  -2   -4.20   11.30
  -4  12   2   -1.30   10.10
   4 -12  -2   29.70   14.70
   4 -12  -2   -9.90   15.10
   4 -12  -2   -1.50   13.90
  -4 -12   2  -13.50   12.30
  -4 -12   2   -1.60   17.50
   0  14   0  132.39   18.50
   0  14   0  148.99   16.80
   0  14   0  132.49   15.40
   0 -14   0  142.69   17.50
   0 -14   0   86.59   13.60
   2  14  -1   26.00    8.70
   2  14  -1   26.80   10.10
  -2  14   1   20.90    7.50
  -2  14   1   46.20   12.90
  -2  14   1   28.10   10.00
   2 -14  -1   39.60   12.70
  -2 -14   1   54.09   14.50
  -2 -14   1   46.70   11.90
   2 -14  -1   48.30   11.40
   2 -14  -1    7.00   12.30
   0  16   0    8.80   10.60
   0  16   0  -17.50   10.30
   0  16   0   -4.50    8.20
   0 -16   0   28.00   14.10
   0 -16   0   -0.70   11.10
   0 -16   0   -6.00   14.50
  -2  16   1  -14.90   11.40
   2  16  -1  -12.00   11.70
   2  16  -1    5.90   10.40
  -2  16   1   -6.40    9.30
   2  16  -1   -9.10   11.90
  -2  16   1   -3.50   17.20
   2 -16  -1   -5.20   16.20
   2 -16  -1  -15.40   14.60
   2 -16  -1   15.70   16.60
  -2 -16   1    4.20   15.20
   5   1  -2   34.60    9.70
  -5   1   2   16.20    7.80
   5   1  -2   31.90    9.20
   5  -1  -2   30.50    9.30
  -5  -1   2    8.60    8.00
   5  -1  -2   36.30    9.70
  -3   1   1    7.20    3.60
   3   1  -1    2.90    3.70
  -3   1   1    9.30    4.30
   3  -1  -1    5.40    4.10
  -3  -1   1    0.80    3.50
  -3  -1   1    4.50    4.00
   1   1   0    2.60    1.70
  -1   1   0    3.70    1.60
  -1   1   0    4.10    1.80
   1   1   0    4.10    1.60
   1  -1   0    2.40    1.60
  -1  -1   0    2.60    1.70
   1  -1   0    1.30    1.70
  -1  -1   0    4.00    1.70
   1   1  -1    9.50    1.70
   1   1  -1   12.20    1.80
  -1   1   1    8.10    1.60
  -1  -1   1    8.20    1.60
   1  -1  -1    9.70    1.80
   1  -1  -1   10.00    1.70
  -1  -1   1   13.60    2.00
  -3   1   2  263.57   15.30
   3   1  -2  269.87   15.40
  -3   1   2  262.37   16.00
   3   1  -2  340.57   15.20
  -3  -1   2  259.97   15.10
   3  -1  -2  277.87   15.60
  -3  -1   2  300.37   16.30
   5   1  -3   38.60    9.20
  -5   1   3   61.19   13.60
   5   1  -3   41.10    9.10
  -5  -1   3   19.70   12.70
   5  -1  -3   61.59   10.50
   5  -1  -3   54.49   10.40
  -5  -1   3   62.29   13.20
   3   3  -1  830.32   35.90
  -3   3   1  825.62   35.90
  -3   3   1  851.91   36.60
  -3  -3   1  838.92   36.50
  -3  -3   1  803.52   35.70
   3  -3  -1  847.62   36.50
   1   3   0  860.51   32.30
   1   3   0  803.92   31.90
  -1   3   0  787.82   32.00
   1   3   0  781.72   32.10
  -1   3   0  813.82   32.20
  -1  -3   0  822.02   32.20
   1  -3   0  821.92   32.20
  -1  -3   0  845.52   32.40
   1  -3   0  824.52   31.70
   1  -3   0  793.62   32.20
  -1   3   1    9.50    2.20
  -1   3   1   12.80    2.30
   1   3  -1   12.70    2.40
  -1   3   1   17.30    2.60
   1   3  -1   13.40    2.40
   1  -3  -1   13.20    2.40
  -1  -3   1   17.60    2.70
   1  -3  -1   11.10    2.40
   1  -3  -1   11.90    2.40
  -1  -3   1   12.30    2.50
  -3   3   2  165.58   12.70
   3   3  -2  157.18   11.60
  -3   3   2  154.78   11.30
  -3  -3   2  148.79   11.10
   3  -3  -2  135.59   11.70
  -3  -3   2  172.48   12.80
   5   3  -3   52.49    9.90
  -5   3   3   42.10    9.10
   5   3  -3   64.59   11.40
   5  -3  -3   73.79   11.60
   5  -3  -3   42.40   10.00
  -5  -3   3   85.99   12.40
  -5  -3   3   40.00    9.40
   5   5  -2    9.00    9.20
  -5   5   2    3.00    8.50
  -5   5   2   15.30   13.50
   5   5  -2    0.70    8.60
   5  -5  -2   16.90   10.40
  -5  -5   2    7.90   11.20
   5  -5  -2   17.50   14.40
   5  -5  -2    3.20   10.90
  -5  -5   2    8.30    9.20
  -3   5   1   40.00    6.20
  -3   5   1   25.90    6.30
   3   5  -1   31.10    5.70
   3   5  -1   48.00    6.80
   3  -5  -1   25.10    6.10
  -3  -5   1   36.70    6.60
  -3  -5   1   27.30    5.90
   3  -5  -1   41.00    6.20
   1   5   0  296.27   14.20
  -1   5   0  292.07   14.70
   1   5   0  297.57   14.50
  -1   5   0  283.37   13.60
  -1   5   0  284.07   14.40
  -1  -5   0  281.77   14.50
   1  -5   0  285.07   14.70
   1  -5   0  297.07   14.00
  -1  -5   0  275.67   14.30
  -1  -5   0  309.97   14.40
   1  -5   0  278.37   14.50
   1   5  -1  106.39    7.60
   1   5  -1   99.59    7.10
  -1   5   1  105.79    7.80
  -1   5   1  100.89    7.50
   1   5  -1  104.99    7.60
  -1   5   1  100.09    7.60
   1  -5  -1  106.89    7.90
   1  -5  -1   94.19    7.70
  -1  -5   1  102.49    7.60
   1  -5  -1  102.49    7.80
  -1  -5   1   87.79    7.70
   3   5  -2  106.99   10.30
  -3   5   2  105.49   11.70
  -3   5   2   73.49    9.70
   3   5  -2   96.09   10.40
  -3  -5   2   89.49   11.80
   3  -5  -2  101.49   10.80
  -3  -5   2   85.69   10.20
   3  -5  -2   90.49   10.80
   3  -5  -2   89.09   11.90
  -5   5   3   30.80    9.20
   5   5  -3   30.90    9.50
   5   5  -3   37.40    9.30
   5  -5  -3   31.60   10.70
  -5  -5   3   29.50    9.80
   5  -5  -3   44.90   12.00
   5  -5  -3   31.40   12.50
   5   7  -2   14.60   10.20
  -5   7   2   31.60   10.20
   5   7  -2   38.90   12.10
  -5  -7   2   34.00   14.40
  -5  -7   2   10.10   10.60
   5  -7  -2   47.30   13.00
   5  -7  -2   57.99   13.90
   5  -7  -2   24.70   13.20
  -3   7   1   15.90    5.40
   3   7  -1   15.00    5.50
   3   7  -1    8.10    5.00
   3   7  -1   12.00    5.70
   3  -7  -1    6.60    6.00
   3  -7  -1    9.60    6.00
  -3  -7   1   27.40    7.30
  -3  -7   1   11.00    6.00
   3  -7  -1   17.50    6.20
   1   7   0  223.18   12.90
  -1   7   0  223.78   13.80
  -1   7   0  209.98   13.20
   1   7   0  221.28   13.20
  -1   7   0  216.48   12.10
   1   7   0  207.88   12.80
  -1  -7   0  223.18   14.00
   1  -7   0  223.58   12.70
  -1  -7   0  207.68   12.60
   1  -7   0  216.18   13.50
  -1  -7   0  220.18   13.80
   1  -7   0  221.88   13.70
   1   7  -1  412.76   19.40
   1   7  -1  377.46   19.00
   1   7  -1  393.16   18.50
  -1   7   1  369.36   18.50
  -1   7   1  400.06   19.40
  -1   7   1  412.16   19.80
   1  -7  -1  374.36   19.70
   1  -7  -1  369.06   19.30
  -1  -7   1  400.36   20.00
  -1  -7   1  374.96   19.20
  -1  -7   1  398.86   18.50
   1  -7  -1  389.96   19.00
  -3   7   2    8.50    5.00
   3   7  -2    3.00    5.00
   3   7  -2   -0.60    4.60
   3   7  -2   -1.00    4.70
  -3   7   2    6.90    5.90
   3  -7  -2   -0.60    5.30
  -3  -7   2    8.70    5.70
  -3  -7   2   -3.40    6.60
   3  -7  -2    5.60    5.50
   3  -7  -2    8.00    5.80
   5   7  -3    6.60    9.60
  -5   7   3    6.20    9.70
  -5   7   3   27.50   13.60
   5   7  -3   -2.30   10.80
   5  -7  -3   12.70   12.20
   5  -7  -3   14.50   12.40
   5  -7  -3    8.50   11.20
  -5  -7   3    3.70    9.90
   5   9  -2   80.19   15.70
  -5   9   2   75.99   13.50
   5   9  -2   59.19   12.90
  -5   9   2  119.49   20.00
  -5  -9   2   61.49   15.60
   5  -9  -2   90.19   17.10
  -5  -9   2  108.39   20.80
   5  -9  -2   82.39   16.80
   5  -9  -2   74.19   16.30
   3   9  -1  675.43   34.30
   3   9  -1  685.23   34.10
  -3   9   1  743.43   36.20
  -3   9   1  725.43   42.90
   3  -9  -1  653.83   35.00
   3  -9  -1  704.73   35.80
   1   9   0   65.89    9.00
  -1   9   0   95.99    8.90
   1   9   0   77.89   10.00
  -1   9   0   79.99   10.00
  -1   9   0   60.09    9.00
  -1  -9   0   73.89   10.40
   1  -9   0   82.09   10.50
   1  -9   0   91.39    9.20
   1   9  -1   74.09    8.60
  -1   9   1  105.19   10.40
   1   9  -1   82.29    9.60
  -1   9   1   74.19    9.00
  -1   9   1   75.29    9.70
   1  -9  -1   57.99    7.80
  -1  -9   1   83.99   10.50
  -1  -9   1   46.70    7.10
   3   9  -2   60.39   14.10
   3   9  -2   27.40    7.10
   3   9  -2   60.69    8.90
  -3  -9   2   36.50   10.70
   3  -9  -2   39.20    8.70
   3  -9  -2   39.70    8.30
   3  -9  -2   38.50    8.20
  -5   9   3   23.80   16.70
  -5   9   3    6.20   10.20
   5   9  -3   -9.50   12.40
   5   9  -3   22.40   11.80
  -5  -9   3   18.30   12.60
  -5  -9   3   -3.40   17.40
   5  -9  -3  -12.50   14.40
   5  -9  -3   -3.80   14.30
   3  11  -1   10.70    7.40
   3  11  -1   23.20    8.20
   3  11  -1   14.30    7.70
  -3  11   1   17.10    7.80
  -3  11   1   11.10    9.40
   3 -11  -1   19.70    9.70
  -3 -11   1   16.10   10.90
   3 -11  -1    0.10    8.90
  -1  11   0   17.90    6.20
   1  11   0   17.60    5.30
   1  11   0   19.80    6.20
  -1  11   0   20.10    6.50
   1  11   0   20.20    6.30
  -1  11   0   15.40    4.80
  -1 -11   0   11.60    5.40
  -1 -11   0   20.00    7.60
   1 -11   0   11.20    6.80
   1 -11   0   13.60    5.30
   1 -11   0   12.70    7.40
  -1 -11   0   14.50    7.10
   1  11  -1    1.70    4.30
  -1  11   1   -1.20    5.50
  -1  11   1    6.90    4.60
  -1  11   1   -6.60    5.20
   1  11  -1    2.00    5.20
   1 -11  -1    6.20    6.40
   1 -11  -1    6.50    5.20
   1 -11  -1   -0.90    6.30
  -1 -11   1   -5.70    5.80
  -1 -11   1    0.50    4.90
   3  11  -2 1073.69   49.99
   3  11  -2 1078.19   49.80
  -3  11   2 1224.08   54.79
   3  11  -2 1047.00   50.49
   3 -11  -2 1070.19   52.59
   3 -11  -2 1167.88   52.99
  -3 -11   2 1112.69   53.29
   3 -11  -2 1150.08   52.29
  -3  13   1   35.10    9.90
   3  13  -1   14.20    9.90
   3  13  -1    9.90    9.00
  -3  13   1   68.89   16.50
   3  13  -1   23.00   10.40
  -3 -13   1   30.40   14.90
   3 -13  -1   27.70   14.00
   3 -13  -1   33.80   13.20
   3 -13  -1   16.90   12.00
  -3 -13   1   33.30   12.20
   1  13   0  136.99   16.50
   1  13   0  138.69   17.00
  -1  13   0  159.08   17.40
   1  13   0  172.18   16.70
  -1  13   0  163.98   19.20
  -1 -13   0  151.98   20.30
   1 -13   0  143.99   18.50
  -1 -13   0  157.08   22.90
  -1 -13   0  184.48   18.20
   1 -13   0  153.38   21.20
   1 -13   0  131.59   15.20
  -1  13   1   20.10    8.60
  -1  13   1    3.20    6.80
   1  13  -1    1.50    7.10
   1  13  -1    4.30    7.20
  -1  13   1    0.50    6.10
  -1 -13   1    1.20    7.20
  -1 -13   1    2.40    8.20
   1 -13  -1  -12.20    8.80
   1 -13  -1    5.20    8.90
   1 -13  -1   19.50    7.60
   3  13  -2   32.00    8.80
  -3  13   2   29.60    9.80
   3  13  -2   17.30   11.60
   3  13  -2   23.50   10.40
  -3  13   2   37.10   16.80
   3 -13  -2   42.70   14.00
  -3 -13   2   58.59   12.80
   3 -13  -2   30.90   12.20
  -3 -13   2   21.30   15.00
   3 -13  -2   25.90   13.60
   3  15  -1    2.90   12.50
  -3  15   1  -21.20   20.30
   3  15  -1   12.00   13.40
   3  15  -1   -2.20   11.30
  -3  15   1    2.60   12.60
   3 -15  -1   13.00   18.00
  -3 -15   1  -25.40   15.70
   3 -15  -1   -0.90   17.20
   3 -15  -1    1.10   16.00
  -3 -15   1   21.40   18.30
   1  15   0   57.79    9.50
  -1  15   0   78.29   13.00
  -1  15   0   42.80   11.30
   1  15   0   62.39   12.60
   1  15   0   61.29   12.60
  -1  15   0   46.90    9.00
   1 -15   0   72.89   12.10
   1 -15   0   31.90   13.10
   1 -15   0   35.60   13.40
  -1 -15   0   38.60   12.40
  -1 -15   0   61.79   12.20
  -1 -15   0   44.10   14.50
   1  15  -1    6.80    9.30
  -1  15   1   18.90   10.80
  -1  15   1   -1.40    7.10
  -1  15   1  -11.00    8.60
   1  15  -1    5.10    9.50
   1  15  -1    6.00    6.90
   1 -15  -1   15.10   12.80
  -1 -15   1   16.20   10.80
   1 -15  -1  -18.80    9.20
   1 -15  -1    6.20   11.60
  -1 -15   1    2.40   11.20
  -1 -15   1   31.80   15.30
   3  15  -2   16.00   13.10
   3  15  -2   16.10   11.00
  -3  15   2   -4.60   13.50
   3  15  -2    2.30   12.20
  -3  15   2   -7.60   18.00
   3 -15  -2   21.10   15.70
   3 -15  -2   -6.30   16.50
  -3 -15   2   -4.60   18.00
  -3 -15   2   -3.10   19.10
   3 -15  -2   -0.20   17.60
   1  17   0   -1.80   10.40
   1  17   0  -13.30   12.80
   1  17   0   -6.60   13.10
  -1  17   0   -6.10    9.00
  -1  17   0    7.30   12.80
  -1  17   0    7.40   13.60
   1 -17   0   12.40   17.70
  -1 -17   0   11.80   17.70
  -1 -17   0    1.60   19.90
  -1 -17   0   -9.70   14.90
   1 -17   0    8.70   13.70
   1 -17   0  -37.20   16.50
   1  17  -1   16.70   13.80
  -1  17   1   18.70   15.70
  -1  17   1   10.70   10.40
   1  17  -1    8.60    9.90
   1  17  -1    9.00   13.50
  -1  17   1   19.90   12.90
   1 -17  -1   15.50   13.80
   1 -17  -1   -6.70   17.00
  -1 -17   1   16.00   16.90
  -1 -17   1   21.50   20.90
   6   0  -2   53.79   14.10
  -6   0   2   65.19   14.00
  -6   0   2   66.39   24.70
   6   0  -2   14.40   14.10
   4   0  -1   -3.70    5.30
  -4   0   1    0.80    4.90
  -4   0   1    2.30    7.50
  -2   0   0 1204.88   45.10
   2   0   0 1148.09   44.70
   2   0   0 1114.09   44.70
  -2   0   0 1072.89   44.40
  -2   0   2    4.80    2.10
  -2   0   2    5.80    2.50
   2   0  -2    3.40    2.00
   2   0  -2    5.20    2.40
   4   0  -3    0.30    5.00
  -4   0   3    1.60    5.00
  -4   0   3   -4.70    6.30
   4   0  -3    4.60    5.10
  -6   0   4  411.86   38.80
   6   0  -4  467.05   33.20
  -6   0   4  538.25   35.00
   6   0  -4  578.84   40.10
   6   2  -2   21.10   14.70
  -6   2   2   42.60   13.50
   6   2  -2   35.30   13.10
  -6   2   2  101.69   23.60
  -6  -2   2   37.60   21.10
  -6  -2   2   52.19   13.90
   6  -2  -2   10.30   15.50
   4   2  -1   -0.80    5.50
  -4   2   1   10.40    7.40
   4  -2  -1    3.80    6.90
   4  -2  -1   -2.10    5.90
  -4  -2   1   -1.90    6.30
  -2   2   0 1807.82   66.59
   2   2   0 1663.43   65.99
  -2   2   0 1665.63   65.89
   2   2   0 1759.62   66.09
   2  -2   0 1758.72   66.19
  -2  -2   0 1765.52   66.49
   2  -2   0 1722.93   66.39
  -2  -2   0 1657.23   65.89
   0   2  -1 1327.17   48.30
   0   2  -1 1249.97   47.50
   0   2   1 1304.47   48.50
   0   2   1 1339.57   48.40
   0   2   1 1313.17   48.30
   0   2  -1 1338.97   48.30
   0  -2  -1 1252.47   48.30
   0  -2   1 1318.07   47.60
   0  -2   1 1308.07   48.40
   0  -2  -1 1277.67   48.40
   0  -2   1 1329.77   48.30
   2   2  -2  217.28   11.50
  -2   2   2  218.78   11.40
   2   2  -2  238.78   11.70
  -2   2   2  245.18   12.00
  -2  -2   2  227.88   11.90
  -2  -2   2  210.58   11.40
   2  -2  -2  230.98   11.60
   2  -2  -2  228.48   11.90
  -4   2   3   11.20    5.20
   4   2  -3   16.70    5.40
   4   2  -3   16.90    5.80
  -4   2   3   20.80    7.40
   4  -2  -3   13.20    5.80
   4  -2  -3   19.60    6.50
  -4  -2   3   15.90    5.40
  -4  -2   3   10.50    6.50
   6   4  -2   23.50   15.90
  -6   4   2   -8.50   23.70
   6  -4  -2   11.60   15.70
   6  -4  -2    2.70   17.20
  -6  -4   2   14.10   18.50
   6  -4  -2    1.70   14.20
  -4   4   1   -4.50    9.30
  -4   4   1   16.10    7.70
   4   4  -1   -2.00    6.10
   4   4  -1   -0.10    5.50
   4  -4  -1    4.80    6.50
   4  -4  -1   15.40    7.00
  -4  -4   1    2.30    5.90
  -2   4   0  894.61   37.10
   2   4   0  952.20   37.70
  -2   4   0  966.50   37.90
   2   4   0  865.61   37.00
  -2  -4   0  833.02   36.90
   2  -4   0  927.51   36.90
   2  -4   0  908.41   37.40
  -2  -4   0  911.01   37.80
   2  -4   0  860.41   37.30
   0   4  -1   61.69    5.30
   0   4   1   49.80    5.00
   0   4  -1   54.69    4.10
   0   4   1   52.19    4.80
   0   4   1   51.39    5.00
   0   4  -1   49.10    4.90
   0  -4  -1   45.60    5.00
   0  -4   1   52.89    5.20
   0  -4   1   47.40    5.10
   0  -4  -1   55.69    5.10
   0  -4   1   51.29    4.10
   0  -4  -1   53.89    5.30
   2   4  -2   24.90    3.90
  -2   4   2   25.90    3.80
   2   4  -2   38.50    5.60
  -2   4   2   25.40    4.00
   2  -4  -2   23.50    4.00
  -2  -4   2   31.00    4.50
   2  -4  -2   24.30    4.20
   2  -4  -2   26.60    4.10
   4   4  -3   29.90    6.60
   4   4  -3   40.20    7.60
  -4   4   3   62.59    9.20
  -4   4   3   42.30    7.60
   4  -4  -3   45.00    8.80
   4  -4  -3   35.80    7.90
  -4  -4   3   18.40    8.90
  -4  -4   3   49.90    8.50
   4  -4  -3   26.40    7.20
   4   6  -1   29.40    8.10
   4   6  -1   28.00    8.10
   4  -6  -1   23.60    8.50
   4  -6  -1   23.10    7.80
   4  -6  -1   28.20    8.70
  -2   6   0    4.60    3.80
   2   6   0   12.60    4.30
   2   6   0    7.40    3.50
  -2   6   0    9.10    3.60
   2  -6   0    7.10    4.30
  -2  -6   0   12.90    4.40
   2  -6   0    5.50    3.70
  -2  -6   0   13.00    4.40
   0   6  -1  155.28    9.80
   0   6   1  154.68   10.10
   0   6  -1  143.89    9.70
   0   6  -1  145.19    8.60
   0   6   1  153.38    9.70
   0   6   1  152.68    9.70
   0  -6   1  160.38    8.80
   0  -6  -1  158.68   10.30
   0  -6   1  142.69    9.70
   0  -6   1  161.18   10.40
   0  -6  -1  159.38    9.60
   0  -6  -1  159.28   10.20
  -2   6   2   57.69    7.90
  -2   6   2   41.60    5.70
   2   6  -2   36.60    5.10
   2  -6  -2   36.40    5.30
  -2  -6   2   48.00    7.10
  -2  -6   2   39.80    5.70
   4   6  -3   -2.10    6.40
  -4   6   3   10.40    7.70
   4   6  -3   -4.30    5.70
  -4   6   3    7.90    6.10
   4  -6  -3   -6.90    7.20
   4  -6  -3    0.90    7.20
   4  -6  -3    0.20    6.90
  -4  -6   3   -2.50    5.90
  -4  -6   3   -7.30    8.10
  -4   8   1  -13.30    9.60
   4   8  -1   -6.20    7.00
   4   8  -1   -2.20    7.70
   4   8  -1   11.30    8.00
   4  -8  -1    7.50    9.30
   4  -8  -1   -1.80    9.00
  -4  -8   1   -5.90   10.00
   4  -8  -1   12.80    8.90
   2   8   0   17.80    5.20
  -2   8   0   15.30    5.10
   2   8   0   10.20    4.30
  -2  -8   0   19.20    6.20
  -2  -8   0    2.20    4.60
   2  -8   0   -0.70    5.00
   2  -8   0    4.40    5.00
   0   8   1  816.32   35.30
   0   8  -1  823.22   35.20
   0   8  -1  809.62   33.60
   0   8   1  837.22   35.30
   0   8   1  793.12   34.60
   0   8  -1  839.82   35.40
   0  -8  -1  838.32   35.00
   0  -8   1  835.12   35.90
   0  -8   1  829.82   35.60
   0  -8   1  844.52   34.00
   0  -8  -1  809.22   35.50
   0  -8  -1  776.22   35.50
  -2   8   2   11.80    4.40
   2   8  -2   12.70    4.30
  -2   8   2    2.90    4.00
   2   8  -2   11.90    4.20
  -2   8   2    9.70    5.20
   2   8  -2    8.40    4.20
   2  -8  -2   10.80    4.90
   2  -8  -2   10.20    4.90
  -2  -8   2    7.10    4.90
   2  -8  -2   12.10    4.90
  -2  -8   2   17.80    6.10
   4   8  -3   79.89   10.60
   4   8  -3  135.69   17.00
   4  -8  -3   96.79   12.40
   4  -8  -3   77.29   11.80
  -4  10   1   19.80   11.40
   4  10  -1    0.10    8.40
  -4  10   1   -3.90    7.90
   4  10  -1   -3.30    9.50
   4 -10  -1    4.90   11.30
   4 -10  -1   18.20   11.30
  -4 -10   1   -3.50    9.20
  -4 -10   1    9.80   14.20
   4 -10  -1   17.70   11.40
  -2  10   0  542.95   27.00
   2  10   0  549.65   28.40
  -2  10   0  572.14   29.90
   2  10   0  523.45   28.10
  -2  10   0  536.45   28.70
   2 -10   0  588.04   28.70
  -2 -10   0  530.25   32.90
   2 -10   0  550.44   29.80
  -2 -10   0  582.84   30.50
   0  10  -1   22.40    4.40
   0  10   1   22.30    4.90
   0  10  -1   27.30    6.00
   0  10   1   38.50    6.60
   0  10  -1   25.80    5.70
   0 -10  -1   27.80    6.40
   0 -10   1   38.90    7.00
   0 -10  -1   24.70    6.30
   2  10  -2   12.60    5.60
  -2  10   2   16.60    5.90
   2  10  -2    5.60    4.70
   2  10  -2    7.60    5.20
   2 -10  -2    6.10    7.10
   2 -10  -2    8.50    6.10
   2 -10  -2   21.40    7.30
   4  10  -3   11.30    8.10
   4  10  -3  -11.80    8.00
  -4  10   3   -1.90    9.70
  -4  10   3   -2.70    8.10
   4  10  -3  -14.40    9.40
  -4 -10   3   -2.70    9.00
   4 -10  -3    3.20   11.10
   4 -10  -3    6.60   10.90
   4 -10  -3  -12.60   10.80
  -4 -10   3  -15.40   12.50
   4  12  -1   19.50   11.50
   4  12  -1   -0.60   11.50
   4  12  -1    5.60   11.80
  -4  12   1   30.10   17.30
  -4  12   1   -1.50   10.60
  -4 -12   1    9.40   12.30
   4 -12  -1   28.40   15.80
   4 -12  -1   35.00   15.90
  -4 -12   1   33.40   19.30
   4 -12  -1   36.80   15.50
  -2  12   0    0.30    5.80
  -2  12   0    0.00    8.30
  -2  12   0    3.60    6.70
   2  12   0   -0.80    7.50
   2  12   0   -0.90    6.50
   2  12   0   -0.80    6.40
   2 -12   0   -7.20    8.90
   2 -12   0   -3.60    9.00
   2 -12   0    3.10   14.00
  -2 -12   0   -2.90    7.70
   0  12  -1   22.40    6.80
   0  12  -1   12.00    6.20
   0  12   1   15.20    5.60
   0  12  -1   10.20    5.00
   0  12   1   19.30    7.90
   0  12   1    6.70    6.90
   0 -12   1   12.10    7.40
   0 -12   1   10.20    5.40
   0 -12  -1   12.90    6.90
   0 -12  -1    9.40    7.10
   0 -12   1    4.80    7.70
   2  12  -2   -7.10    6.10
  -2  12   2   -5.20    8.70
   2  12  -2   -5.70    6.60
   2  12  -2    4.60    6.50
  -2  12   2   -0.40    6.50
  -2  12   2    4.40    7.30
   2 -12  -2    3.30    7.60
   2 -12  -2    4.80    8.50
   2 -12  -2    2.30    9.00
  -2 -12   2    0.00    9.30
   4  12  -3    6.80   11.60
  -4  12   3   -8.60   17.60
  -4  12   3    6.40   10.50
   4  12  -3    8.80   10.90
   4  12  -3   -4.90    9.60
  -4 -12   3   13.30   20.10
   4 -12  -3  -15.30   13.10
   4 -12  -3    8.10   14.20
   4 -12  -3  -20.50   14.40
  -4 -12   3  -16.70   11.60
   2  14   0   19.30    9.10
   2  14   0   34.70   10.80
  -2  14   0   30.20    7.80
   2  14   0   46.10   10.80
  -2  14   0   11.20   11.40
  -2  14   0   32.60   10.10
   2 -14   0   23.00   12.40
  -2 -14   0   47.40   14.00
   2 -14   0   19.10   10.30
  -2 -14   0   18.90   11.70
   2 -14   0   35.30   13.50
   0  14  -1  131.19   15.20
   0  14   1  160.58   19.00
   0  14  -1  125.59   17.90
   0  14   1  145.09   18.90
   0  14  -1  146.49   18.40
   0  14   1  148.59   17.00
   0 -14   1  168.28   21.60
   0 -14   1  129.49   18.20
   0 -14   1   98.49   14.20
   0 -14  -1  145.49   21.50
   0 -14  -1  121.69   15.80
   0 -14  -1  137.19   18.50
   2  14  -2   17.30    7.40
  -2  14   2    7.40    8.60
   2  14  -2    7.50    8.90
   2  14  -2   -0.30    8.30
  -2  14   2    8.40    8.40
  -2  14   2    2.50   12.60
  -2 -14   2   25.00   13.60
   2 -14  -2   13.30   12.40
   2 -14  -2    2.90   11.50
  -2 -14   2   23.50   11.00
   2 -14  -2    0.00   10.30
   2  16   0  -15.70   12.20
   2  16   0    3.30   10.40
   2  16   0    5.10   12.40
  -2  16   0    3.80    8.70
  -2  16   0   26.40   15.50
  -2  16   0    2.50   12.70
   2 -16   0  -27.90   17.10
  -2 -16   0   -1.10   16.00
   2 -16   0  -10.70   14.10
   2 -16   0    5.50   17.10
  -2 -16   0   37.60   20.00
   0  16   1   -3.50   11.80
   0  16  -1    2.70    7.50
   0  16   1   17.10   10.80
   0  16   1    0.50    8.60
   0  16  -1    0.30   10.70
   0  16  -1    0.80   10.00
   0 -16   1    4.40   10.40
   0 -16  -1   -9.40   15.60
   0 -16   1    4.70   13.20
   0 -16  -1   -6.80   12.80
   0 -16  -1    1.10   10.50
   2  16  -2   -9.00   11.60
   2  16  -2   19.20   12.50
  -2  16   2    9.10   10.40
  -2  16   2    4.60   12.10
  -2  16   2  -23.40   16.10
   2  16  -2   -1.10    9.90
   2 -16  -2    7.20   13.30
   2 -16  -2   -7.40   15.60
  -2 -16   2   29.00   15.40
   2 -16  -2  -12.60   15.90
  -2 -16   2   -6.90   17.90
   5   1  -1  521.65   32.30
  -5   1   1  632.94   37.40
   5   1  -1  556.44   32.60
  -5  -1   1  591.84   37.50
   5  -1  -1  574.64   33.20
   5  -1  -1  587.64   33.30
  -3   1   0    3.10    4.40
   3   1   0    2.60    3.80
  -3   1   0   -4.60    3.30
  -3  -1   0   -6.50    3.30
  -3  -1   0   -1.80    4.20
   3  -1   0    1.60    4.10
   1   1   1   44.10    4.60
  -1   1  -1   49.60    4.40
   1   1   1   43.30    4.80
  -1   1  -1   49.80    4.80
  -1  -1  -1   46.70    5.00
   1  -1   1   42.50    4.60
  -1  -1  -1   47.80    4.70
   1  -1   1   46.40    4.50
  -1   1   2 2858.31  107.09
   1   1  -2 2844.32  107.09
   1   1  -2 2955.20  106.99
   1  -1  -2 3021.70  108.29
  -1  -1   2 3049.50  107.09
   1  -1  -2 2976.70  107.19
   3   1  -3  564.94   25.30
  -3   1   3  605.84   26.10
   3   1  -3  585.64   25.30
  -3   1   3  580.14   25.50
  -3  -1   3  582.74   26.10
   3  -1  -3  585.34   25.40
   3  -1  -3  556.04   25.50
  -3  -1   3  556.04   25.30
   5   1  -4   23.80    8.60
  -5   1   4   24.90   11.60
   5  -1  -4    5.20    7.90
  -5  -1   4   22.10   12.10
   5  -1  -4   26.80    9.70
  -5   3   1   21.20   14.10
   5   3  -1   13.60    8.70
   5   3  -1    5.90    8.80
  -5  -3   1    1.70   10.80
   5  -3  -1    1.20    9.80
  -5  -3   1   -1.20   12.20
   5  -3  -1  -21.20    8.80
   3   3   0    5.10    4.10
  -3   3   0   -0.20    4.90
  -3   3   0    4.20    3.90
   3  -3   0    3.00    4.50
  -3  -3   0    3.60    4.90
  -3  -3   0   -2.30    3.70
   1   3   1  137.39    8.00
  -1   3  -1  118.19    7.80
   1   3   1  128.79    8.00
   1   3   1  133.69    8.00
  -1   3  -1  141.79    8.50
  -1  -3  -1  127.89    8.00
  -1  -3  -1  125.19    7.90
   1  -3   1  127.49    8.20
   1  -3   1  127.99    8.20
   1  -3   1  136.19    7.20
  -1   3   2   18.10    2.50
   1   3  -2   12.90    2.10
   1   3  -2   12.50    2.10
  -1   3   2    8.70    2.00
  -1   3   2   13.10    2.60
   1  -3  -2   12.20    2.40
   1  -3  -2   10.00    2.50
   1  -3  -2    8.80    2.00
  -1  -3   2   12.10    2.00
  -1  -3   2   12.30    2.20
  -3   3   3  679.33   30.40
   3   3  -3  686.83   29.80
  -3   3   3  667.73   29.80
  -3  -3   3  734.93   30.70
   3  -3  -3  721.53   31.10
   3  -3  -3  658.63   30.10
  -3  -3   3  673.13   29.80
   5   3  -4    3.10    8.20
  -5   3   4    3.50   11.10
  -5   3   4   11.10    7.50
   5   3  -4    4.10    7.30
  -5  -3   4   12.00    7.70
   5  -3  -4    0.40    9.50
   5  -3  -4   -5.90    9.30
  -5  -3   4   17.70   10.50
   5  -3  -4   -4.90    8.00
  -5   5   1   -6.80    8.00
   5   5  -1  -10.90    8.70
   5   5  -1   -6.50    8.90
  -5  -5   1    3.90    9.60
   5  -5  -1   -0.50   10.10
   5  -5  -1    5.10   10.70
  -5  -5   1   12.80   12.20
   5  -5  -1    4.00   10.80
  -3   5   0   28.50    5.90
  -3   5   0   27.00    6.30
   3   5   0   22.10    5.40
   3   5   0   30.60    6.20
   3  -5   0   27.80    6.00
   3  -5   0   26.70    6.50
  -3  -5   0   36.10    7.10
   3  -5   0   37.20    5.90
  -3  -5   0   23.70    5.70
  -1   5  -1  373.46   17.50
   1   5   1  376.06   17.50
   1   5   1  369.16   17.30
  -1   5  -1  350.76   16.00
  -1   5  -1  382.26   17.70
   1   5   1  357.76   17.60
  -1  -5  -1  370.16   17.80
  -1  -5  -1  355.36   17.70
   1  -5   1  357.56   16.20
   1  -5   1  352.86   17.40
   1  -5   1  367.16   17.70
  -1  -5  -1  392.86   17.30
  -1   5   2    3.00    2.30
   1   5  -2    1.40    1.80
   1   5  -2    3.90    2.30
  -1   5   2    4.30    2.60
   1   5  -2    6.90    2.50
  -1   5   2    1.20    2.30
   1  -5  -2    0.90    2.50
   1  -5  -2    1.40    2.40
   1  -5  -2    3.30    2.40
  -1  -5   2    5.20    2.70
  -1  -5   2   -0.90    2.10
  -3   5   3    8.00    4.60
   3   5  -3    4.20    3.90
  -3   5   3    4.60    4.00
   3   5  -3   11.70    4.20
   3  -5  -3   -1.40    4.30
  -3  -5   3   -3.90    3.90
  -3  -5   3    5.40    5.00
   3  -5  -3    7.20    4.70
   3  -5  -3    0.00    4.80
   5   5  -4   -1.10    8.40
  -5  -5   4   23.30   11.80
  -5  -5   4   -0.80    8.20
   5  -5  -4   26.20   11.00
   5  -5  -4   24.50   11.50
   5  -5  -4   12.50    9.30
   5   7  -1   33.50   12.50
  -5   7   1   61.29   19.00
  -5   7   1   37.60   10.70
   5   7  -1   13.90    9.50
   5  -7  -1   44.90   13.20
  -5  -7   1   31.10   11.30
   5  -7  -1   26.40   12.00
   5  -7  -1   43.20   13.40
  -5  -7   1   35.30   15.10
   3   7   0  -10.30    5.30
   3   7   0    8.60    5.10
   3   7   0    3.80    5.10
  -3   7   0    2.60    5.00
  -3  -7   0    2.60    5.50
   3  -7   0    0.10    4.90
   3  -7   0    2.30    5.70
   3  -7   0   -5.10    5.90
  -1   7  -1   13.00    2.90
  -1   7  -1    4.50    3.30
   1   7   1   10.90    3.80
   1   7   1    3.50    3.10
   1   7   1    8.60    3.70
  -1   7  -1    8.90    3.80
   1  -7   1   11.60    4.20
   1  -7   1    9.30    3.10
  -1  -7  -1    8.50    3.70
  -1  -7  -1    7.80    4.00
   1  -7   1   -1.30    3.30
  -1  -7  -1   17.40    3.70
  -1   7   2  964.30   38.70
  -1   7   2  936.61   38.20
   1   7  -2  913.51   37.90
  -1   7   2  913.31   38.10
   1   7  -2  919.81   37.90
   1   7  -2  922.51   37.10
  -1  -7   2  929.21   38.60
   1  -7  -2  929.91   38.40
   1  -7  -2  876.21   38.30
  -1  -7   2  866.81   37.90
   1  -7  -2  925.21   38.60
   3   7  -3   12.50    5.70
  -3   7   3   21.20    6.20
  -3   7   3   12.30    5.10
   3   7  -3    8.80    5.10
  -3  -7   3   14.10    7.00
   3  -7  -3   16.40    5.80
   3  -7  -3    6.20    6.20
  -3  -7   3   12.00    5.40
   3  -7  -3   17.30    6.10
  -5   9   1  -10.30   10.80
  -5   9   1   -0.90   17.20
   5   9  -1    1.20   12.70
   5   9  -1   10.60   12.70
   5   9  -1    0.70   10.40
  -5  -9   1   21.40   12.90
   5  -9  -1    6.20   14.30
   5  -9  -1    4.00   14.20
   5  -9  -1   13.30   14.70
  -5  -9   1   -4.90   17.20
   3   9   0  207.88   17.80
  -3   9   0  215.08   20.10
   3   9   0  193.48   17.40
  -3   9   0  181.58   16.70
   3  -9   0  164.48   17.50
   3  -9   0  196.38   18.20
   3  -9   0  154.48   18.10
  -3  -9   0  209.98   20.20
  -3  -9   0  194.98   19.60
  -1   9   2  201.28   14.20
   1   9  -2  213.58   14.00
   1   9  -2  199.58   14.00
   1   9  -2  207.98   12.80
  -1   9   2  214.48   15.20
  -1   9   2  202.08   14.20
   1  -9  -2  235.38   15.70
  -1  -9   2  212.48   15.90
   1  -9  -2  199.58   14.60
  -1  -9   2  195.48   14.30
   3   9  -3  166.08   17.80
  -3   9   3  219.38   18.40
   3   9  -3  190.68   16.50
   3   9  -3  218.78   17.20
   3  -9  -3  214.38   18.20
   3  -9  -3  191.38   18.50
   3  -9  -3  222.48   19.70
  -3  -9   3  170.98   18.70
  -3  -9   3  195.48   17.40
   5   9  -4   17.20   11.00
   5   9  -4   19.30   10.80
  -5   9   4   -0.60   10.50
  -5   9   4   16.70   13.80
   5   9  -4  -24.60   13.10
   5  -9  -4   -0.80   13.00
   5  -9  -4    0.10   14.50
   5  -9  -4    8.70   14.70
  -5  -9   4    1.50   12.20
  -3  11   0    2.30    7.20
   3  11   0    0.10    8.10
   3  11   0   -0.40    7.10
  -3  11   0    4.80    8.40
  -3 -11   0   -4.60   10.50
   3 -11   0    9.20    9.20
   3 -11   0   11.70    9.40
  -3 -11   0    8.70    8.40
   3 -11   0    4.20   10.10
  -1  11  -1   -2.20    5.70
  -1  11  -1    4.10    5.70
  -1  11  -1    4.00    4.00
   1  11   1    3.70    6.00
   1  11   1    4.10    5.00
   1  11   1    5.10    5.60
   1 -11   1   12.10    7.20
   1 -11   1    8.40    7.10
  -1 -11  -1    0.10    7.00
  -1 -11  -1    2.70    6.60
  -1 -11  -1   -0.20    5.20
  -1  11   2   -1.40    5.70
  -1  11   2   -0.50    6.10
   1  11  -2    3.20    6.10
  -1  11   2    0.20    5.40
   1  11  -2    1.60    3.80
   1  11  -2   -1.90    4.90
   1 -11  -2    0.40    5.60
   1 -11  -2    2.10    6.40
   3  11  -3   44.00    9.30
   3  11  -3   44.50    8.40
   3  11  -3   59.59   10.00
   3 -11  -3   56.39   11.40
   3 -11  -3   57.69   11.60
   3 -11  -3   66.19   11.60
   3  13   0   30.90   11.00
  -3  13   0   48.40   15.10
   3  13   0   28.00   10.00
  -3  13   0   25.40   10.40
   3  13   0   46.70   12.10
   3 -13   0   49.00   13.10
   3 -13   0   17.50   13.40
   3 -13   0   41.30   14.40
  -3 -13   0   40.40   15.00
  -3 -13   0   37.30   12.80
  -1  13  -1   23.70    7.80
   1  13   1   32.80    9.20
   1  13   1   19.70    8.00
  -1  13  -1   16.30    5.70
  -1  13  -1   34.80    9.20
   1  13   1   21.50    7.40
   1 -13   1   14.30    9.10
   1 -13   1   18.20    7.20
   1 -13   1   42.60   11.20
  -1 -13  -1   17.20   11.30
  -1 -13  -1   35.50    9.70
  -1 -13  -1   29.80    8.00
  -1  13   2   59.19    9.50
  -1  13   2   89.59   12.80
   1  13  -2   64.29    8.50
   1  13  -2   66.79   10.20
  -1  13   2   58.19   10.10
   1  13  -2   74.59   10.40
  -1 -13   2   78.09   13.90
   1 -13  -2   58.39    9.80
   1 -13  -2  122.99   17.10
   3  13  -3   14.60    9.90
  -3  13   3   14.60    9.60
   3  13  -3    5.80    8.00
   3  13  -3   14.40    9.20
  -3  13   3    3.30   14.70
   3 -13  -3   10.90   12.70
   3 -13  -3   12.80   12.50
  -3 -13   3    4.20   10.90
   3 -13  -3   30.70   12.80
  -3  15   0   20.70   20.70
   3  15   0   14.40   12.60
   3  15   0   12.10   13.50
  -3  15   0   -2.50   13.00
   3  15   0   10.90   14.20
   3 -15   0  -22.30   17.50
   3 -15   0   25.90   15.70
  -3 -15   0   14.80   17.20
  -3 -15   0   39.50   20.40
   3 -15   0  -18.70   16.50
   1  15   1    4.10    7.80
   1  15   1  -17.10    9.40
   1  15   1    5.10    9.50
  -1  15  -1    5.60    9.00
  -1  15  -1    7.80    6.60
  -1  15  -1   23.30   11.20
   1 -15   1   -5.50   11.40
  -1 -15  -1   -7.40   13.80
   1 -15   1    0.20    9.40
   1 -15   1   -3.10   12.70
  -1 -15  -1  -26.90   10.90
  -1 -15  -1  -25.90    9.80
   1  15  -2   71.59   12.50
  -1  15   2   86.29   14.30
  -1  15   2   67.39   12.80
   1  15  -2   40.20   11.00
   1  15  -2   51.79    9.20
  -1  15   2   66.49   11.10
  -1 -15   2   85.99   18.30
   1 -15  -2   73.29   14.90
   1 -15  -2   42.30   12.70
   1 -15  -2   65.69   12.50
  -1 -15   2   59.09   13.40
   3  15  -3    4.50   14.10
  -3  15   3   18.90   18.50
   3  15  -3   12.20   10.40
   3  15  -3   18.30   13.10
  -3 -15   3   17.30   19.60
   3 -15  -3   -6.00   16.00
   3 -15  -3    3.40   23.10
   3 -15  -3   -4.40   17.10
  -1  17  -1   13.00    9.20
   1  17   1  -14.80   13.80
   1  17   1   -2.90   11.00
   1  17   1  -30.70   13.10
  -1  17  -1  -13.30   12.40
  -1 -17  -1    8.50   17.40
   1 -17   1    0.50   17.30
   1 -17   1   11.50   17.50
  -1 -17  -1   -8.50   18.80
   1 -17   1    7.60   12.80
  -1 -17  -1   24.80   16.10
  -1  17   2   11.10   15.10
   1  17  -2   17.70   13.80
   1  17  -2  -22.70   12.60
   1  17  -2    6.40    9.40
  -1  17   2   19.40   13.60
  -1  17   2   -3.50   11.50
   1 -17  -2   19.00   14.70
   1 -17  -2   18.10   18.20
  -1 -17   2   10.20   22.10
  -1 -17   2   -3.70   18.90
  -6   0   1    3.60   23.00
   6   0  -1   14.30   15.50
   6   0  -1   12.80   14.00
  -6   0   1   -4.20   13.10
   4   0   0  258.37   18.70
   4   0   0  213.18   20.70
  -2   0  -1   -3.40    2.80
   2   0   1    2.80    2.70
   2   0   1    4.40    3.10
  -2   0  -1    3.90    2.60
   0   0   2  205.28    8.80
   0   0  -2  218.18    8.70
   0   0   2  213.78    8.60
   0   0  -2  218.98    8.80
   2   0  -3   -0.90    1.90
  -2   0   3    2.10    2.10
   2   0  -3    0.50    1.70
  -2   0   3    1.20    1.70
   4   0  -4   17.40    5.40
  -4   0   4   23.00    7.20
   4   0  -4   14.90    5.30
  -4   0   4    8.40    4.80
   6   0  -5   19.00   11.00
  -6   0   5   27.80   17.50
   6   0  -5   19.00   14.70
  -6   0   5   -8.60   11.80
   6   2  -1   18.80   14.20
   6   2  -1    9.40   14.20
  -6   2   1   16.40   13.20
  -6   2   1    2.20   24.50
  -6  -2   1   23.60   21.40
   6  -2  -1   20.20   15.70
   6  -2  -1   18.60   14.80
  -6  -2   1   20.20   14.00
   4   2   0   49.00    7.60
   4   2   0   38.10    7.80
   4  -2   0   55.19    8.70
   4  -2   0   39.80    7.80
  -2   2  -1 1591.24   63.49
   2   2   1 1641.74   63.69
  -2   2  -1 1703.23   64.09
   2   2   1 1667.43   63.59
  -2  -2  -1 1696.43   64.09
   2  -2   1 1649.73   63.69
   2  -2   1 1602.34   63.79
  -2  -2  -1 1593.74   63.49
   0   2  -2  377.46   15.20
   0   2   2  384.26   15.40
   0   2  -2  357.16   13.90
   0   2  -2  384.96   15.20
   0   2   2  374.66   15.40
   0   2   2  381.36   15.70
   0  -2  -2  376.36   15.40
   0  -2   2  374.46   15.20
   0  -2  -2  375.86   15.40
   0  -2  -2  362.56   15.50
   0  -2   2  381.36   15.30
   2   2  -3  208.38   10.30
   2   2  -3  213.48   10.20
  -2   2   3  188.18   10.60
  -2   2   3  183.48   10.10
  -2  -2   3  201.58   10.20
  -2  -2   3  209.88   10.70
   2  -2  -3  198.68   10.60
   2  -2  -3  208.28   10.40
   2  -2  -3  202.58   11.80
   4   2  -4  104.49   11.90
  -4   2   4   86.49   11.40
  -4   2   4  136.99   14.50
   4   2  -4   89.69   11.40
  -4  -2   4   97.19   13.50
   4  -2  -4  121.99   12.80
   4  -2  -4   75.69   11.50
  -4  -2   4   90.89   11.30
  -6   2   5  -16.10   11.90
   6   2  -5    1.00   12.00
   6   2  -5   33.80   15.10
   6  -2  -5    6.90   15.20
   6  -2  -5   14.60   12.60
  -6  -2   5    2.20   19.40
  -6  -2   5   -0.40   11.90
   6   4  -1  -10.10   14.20
  -6   4   1   -2.00   24.90
  -6  -4   1    4.80   18.00
   6  -4  -1   -2.90   15.40
  -4   4   0  300.57   30.20
   4   4   0  345.37   22.30
   4   4   0  308.27   21.30
   4  -4   0  363.86   23.40
   4  -4   0  312.07   22.50
   2   4   1   49.20    7.00
  -2   4  -1   42.30    5.60
  -2   4  -1   31.40    4.90
   2   4   1   49.40    7.00
   2   4   1   27.90    4.80
   2  -4   1   34.30    5.40
   2  -4   1   34.40    5.00
  -2  -4  -1   34.20    5.20
  -2  -4  -1   36.50    5.70
   0   4   2  737.83   29.20
   0   4  -2  723.63   29.00
   0   4   2  726.53   29.30
   0   4  -2  702.43   27.50
   0   4  -2  717.03   29.00
   0   4   2  737.53   29.20
   0  -4  -2  716.33   29.30
   0  -4   2  731.63   27.50
   0  -4   2  713.73   29.10
   0  -4   2  743.33   29.10
   0  -4  -2  747.83   29.40
   0  -4  -2  719.63   29.20
   2   4  -3   12.10    3.10
   2   4  -3    9.60    2.90
  -2   4   3   15.70    3.10
  -2   4   3   13.00    3.10
   2  -4  -3   10.60    3.10
   2  -4  -3    2.20    3.30
  -2  -4   3   11.70    3.10
  -2  -4   3   10.80    3.20
   2  -4  -3   16.00    3.50
   4   4  -4  247.58   17.30
  -4   4   4  292.57   20.00
  -4   4   4  263.57   19.50
   4  -4  -4  269.07   22.00
   4  -4  -4  270.27   18.90
  -4  -4   4  300.07   20.20
   4  -4  -4  268.27   18.00
  -4   6   0    3.80    9.60
   4   6   0   -5.70    6.30
   4   6   0   -7.40    6.60
   4  -6   0   -2.00    7.30
  -4  -6   0   11.10    8.70
   4  -6   0    1.10    7.80
   2   6   1   31.30    4.80
  -2   6  -1   32.70    5.70
  -2   6  -1   31.60    5.30
   2   6   1   33.30    5.60
   2  -6   1   37.90    6.00
  -2  -6  -1   31.80    5.60
   2  -6   1   30.20    4.60
  -2  -6  -1   43.60    6.10
   0   6   2   96.19    8.00
   0   6  -2   90.89    7.90
   0   6  -2   95.99    7.80
   0   6   2   99.69    7.80
   0   6   2   98.29    8.00
   0   6  -2   86.39    6.20
   0  -6   2   88.59    6.30
   0  -6   2   99.99    7.90
   0  -6  -2  104.59    7.80
   0  -6  -2   95.29    8.10
   0  -6  -2   92.29    8.20
   0  -6   2   91.19    8.20
  -2   6   3  239.28   15.00
   2   6  -3  255.17   14.20
  -2   6   3  269.07   15.20
   2   6  -3  264.27   14.40
  -2   6   3  246.58   14.30
  -2  -6   3  278.37   15.40
   2  -6  -3  274.17   15.00
   2  -6  -3  269.17   15.00
  -2  -6   3  247.68   14.40
  -4   6   4    4.70    5.50
   4   6  -4    9.90    6.80
  -4   6   4   -4.50    7.20
   4   6  -4    7.80    6.00
  -4  -6   4   -3.50    8.10
  -4  -6   4    8.80    6.60
   4  -6  -4    0.10    7.20
   4  -6  -4   -0.70    6.90
   4  -6  -4    8.10    7.60
  -4   8   0   25.70   10.80
   4   8   0   26.90    9.10
   4   8   0   22.10    9.10
  -4   8   0    9.30    8.50
   4   8   0   20.50    8.00
  -4  -8   0   41.20   12.30
   4  -8   0   22.10    9.60
   4  -8   0   32.50   10.00
   2   8   1   21.00    5.90
  -2   8  -1   16.70    5.00
   2   8   1   14.30    4.80
   2  -8   1    6.20    5.30
   2  -8   1   16.90    6.20
   2  -8   1   11.50    4.80
  -2  -8  -1   17.10    5.30
   0   8   2  228.28   13.90
   0   8   2  247.08   14.70
   0   8  -2  230.98   12.10
   0   8   2  231.78   14.20
   0   8  -2  229.08   14.00
   0  -8  -2  227.18   14.50
   0  -8   2  227.48   14.40
   0  -8   2  253.27   14.80
   0  -8   2  220.58   12.40
   2   8  -3   74.29    9.20
  -2   8   3   62.09    7.80
  -2   8   3   60.19    7.70
   2   8  -3   63.89    9.20
   2   8  -3   48.10    6.30
  -2   8   3   66.69    9.20
   2  -8  -3   55.69    7.70
  -2  -8   3   76.39   10.10
  -2  -8   3   52.39    7.40
   2  -8  -3   42.90    7.10
   2  -8  -3   75.29    8.60
   4   8  -4  148.59   17.50
   4   8  -4   92.59   11.50
   4   8  -4  143.19   16.00
   4  -8  -4  146.79   20.30
   4  -8  -4   98.29   12.80
  -4  -8   4  134.59   14.90
   4  -8  -4  147.09   21.00
  -4  10   0   13.70    8.90
   4  10   0   12.30   10.80
  -4  10   0   37.80   13.20
   4  10   0   16.60    9.30
   4  10   0   34.00   11.00
  -4 -10   0   33.70   14.50
   4 -10   0   12.30   11.90
   4 -10   0   27.40   11.90
   4 -10   0   19.30   12.10
  -4 -10   0   18.10   10.90
  -2  10  -1 1113.99   47.80
  -2  10  -1 1098.49   47.00
   2  10   1  880.51   50.49
   2  10   1 1048.20   46.50
   2 -10   1 1053.19   47.60
   2 -10   1 1036.80   51.69
  -2 -10  -1 1008.70   50.89
  -2 -10  -1 1109.29   49.00
   0  10   2    9.70    6.00
   0  10   2   23.10    5.60
   0  10  -2   30.80    4.60
   0  10   2   18.90    5.40
   0  10  -2   37.30    6.40
   0  10  -2   36.80    6.50
   0 -10   2   30.90    6.70
   0 -10  -2   39.10    7.60
   0 -10  -2   25.70    5.60
   0 -10   2   26.90    4.80
   0 -10  -2   37.60    7.20
   2  10  -3    1.60    5.20
   2  10  -3    5.50    4.40
  -2  10   3   -1.10    6.20
   2  10  -3    9.10    5.30
  -2  10   3    8.10    5.50
   2 -10  -3   16.10    7.40
  -2 -10   3   29.00    7.90
  -2 -10   3    3.00    6.50
   2 -10  -3    6.60    6.40
   2 -10  -3    1.60    6.60
  -4  10   4  407.06   31.50
   4  10  -4  390.86   26.20
  -4  10   4  352.56   26.00
   4  10  -4  358.26   26.20
   4  10  -4  392.96   27.30
   4 -10  -4  382.76   31.90
  -4 -10   4  359.06   27.50
   4 -10  -4  366.06   29.20
   4 -10  -4  386.96   32.00
  -4  12   0   -3.60   13.60
   4  12   0   -2.00   11.10
   4  12   0   -6.50   11.70
   4  12   0    3.70   10.60
  -4  12   0    9.80   11.10
  -4 -12   0  -15.20   12.00
   4 -12   0    6.60   14.60
   4 -12   0    5.10   15.30
  -4 -12   0  -17.30   17.70
   4 -12   0    2.70   15.80
   2  12   1  572.74   30.70
  -2  12  -1  562.24   33.80
  -2  12  -1  519.55   30.00
   2  12   1  543.95   30.90
   2  12   1  563.54   31.00
   2 -12   1  542.55   33.70
   2 -12   1  549.15   30.60
  -2 -12  -1  515.65   32.30
  -2 -12  -1  537.55   33.40
   2 -12   1  553.04   32.10
   0  12  -2   -3.00    4.00
   0  12  -2    5.80    5.90
   0  12  -2    6.20    6.00
   0  12   2    6.10    6.30
   0  12   2   12.30    6.90
   0  12   2    2.00    6.30
   0 -12  -2   -5.50    7.40
   0 -12   2   -1.80    6.90
   0 -12   2    0.90    7.30
   0 -12  -2   11.50    6.60
   0 -12  -2   -4.80    6.80
   2  12  -3   61.99    9.40
  -2  12   3   68.99   11.40
   2  12  -3   52.79    7.90
   2  12  -3   41.90    8.90
  -2  12   3   50.99    9.20
   2 -12  -3   53.79   10.60
   2 -12  -3   55.69   10.50
   2 -12  -3   64.49   11.20
  -4  12   4   20.20   11.30
   4  12  -4   10.10   12.10
  -4  12   4   58.69   19.20
   4  12  -4   29.40   11.50
   4  12  -4   17.50   10.40
   4 -12  -4   36.30   15.20
   4 -12  -4   -3.20   15.70
  -4 -12   4   47.90   18.70
  -4 -12   4   22.10   13.30
   2  14   1   -1.70    8.20
  -2  14  -1    3.40    9.40
   2  14   1    1.70   10.00
   2  14   1    8.30    9.70
  -2  14  -1    3.50   11.70
   2 -14   1   -3.30   13.00
  -2 -14  -1    2.40   11.40
   2 -14   1  -18.70    9.30
   2 -14   1   11.00   12.70
  -2 -14  -1   10.40   13.50
   0  14  -2  -13.50    7.50
   0  14  -2   -6.20    7.40
   0  14   2  -13.30    8.60
   0  14   2   -5.80    7.70
   0  14  -2    5.60    5.60
   0  14   2    5.40    7.50
   0 -14  -2   -0.20   10.20
   0 -14   2   -1.40    9.90
   0 -14  -2  -13.50   10.20
   0 -14   2   -1.20   10.00
   0 -14  -2   -9.10    8.00
  -2  14   3   38.00   10.60
   2  14  -3   48.60   17.60
  -2  14   3   63.39   11.50
   2  14  -3   51.99   11.20
   2  14  -3   25.90    7.60
  -2  14   3   57.39   15.00
  -2 -14   3   28.50   11.80
  -2 -14   3   63.99   15.50
   2 -14  -3   53.79   13.70
   2 -14  -3   42.40   13.70
   2 -14  -3   29.50   11.70
  -2  16  -1    9.90   12.10
   2  16   1    9.60   12.80
   2  16   1    7.90   12.20
   2  16   1    1.50   13.40
  -2  16  -1   -8.50   14.00
  -2 -16  -1    8.10   16.40
  -2 -16  -1   45.40   19.60
   2 -16   1    7.80   16.60
   2 -16   1   -4.50   18.90
   2 -16   1  -18.70   12.90
   0  16   2   11.80   12.60
   0  16  -2   30.60   11.40
   0  16  -2  -10.10   10.60
   0  16   2    9.20   10.70
   0  16  -2   10.40    7.70
   0  16   2   14.10    9.60
   0 -16  -2    2.10   11.90
   0 -16   2   15.00   10.40
   0 -16   2  -13.60   12.90
   0 -16  -2    4.60   13.90
   0 -16  -2   11.20   15.20
  -2  16   3   22.30   12.30
   2  16  -3   55.49   14.30
   2  16  -3   53.39   14.10
  -2  16   3   18.30   13.80
  -2  16   3   34.00   18.00
   2 -16  -3   42.10   15.70
  -2 -16   3   10.30   15.70
   2 -16  -3   51.79   17.80
  -2 -16   3   27.20   21.80
   2 -16  -3   92.19   19.70
   5   1   0  383.66   25.70
  -5   1   0  305.27   37.20
   5   1   0  354.86   26.70
  -5  -1   0  374.16   32.40
   5  -1   0  332.47   26.70
   5  -1   0  323.77   26.30
  -3   1  -1   39.00    6.10
  -3   1  -1   48.80    7.10
   3   1   1   37.10    6.60
   3  -1   1   43.50    6.70
  -3  -1  -1   37.70    6.00
  -3  -1  -1   44.80    6.90
  -1   1  -2   65.19    5.60
  -1   1  -2   56.39    5.60
   1   1   2   55.69    4.80
   1   1   2   58.29    5.40
   1   1   2   52.89    5.50
  -1  -1  -2   50.59    5.60
  -1  -1  -2   54.59    5.40
   1  -1   2   55.59    5.50
   1  -1   2   51.39    5.60
  -1   1   3 9050.79  346.27
   1   1  -3 9679.33  345.97
  -1  -1   3 9756.42  346.07
   1  -1  -3 9999.00  348.07
  -3   1   4   15.50    3.50
   3   1  -4   17.40    3.60
  -3   1   4   21.80    4.30
   3   1  -4   11.50    3.40
   3  -1  -4   16.40    3.70
  -3  -1   4   12.90    4.10
   3  -1  -4   16.30    3.80
  -3  -1   4   18.30    3.70
   5   1  -5   15.10    8.60
   5   1  -5   23.00    7.40
  -5   1   5   24.00   10.80
   5  -1  -5   23.00    9.10
  -5  -1   5   39.80   11.60
   5  -1  -5    0.40    7.10
   5   3   0   60.39   11.60
  -5   3   0   79.69   18.60
   5   3   0   39.60   10.30
   5  -3   0   46.90   11.60
   5  -3   0   49.30   14.20
  -3   3  -1  169.78   13.30
   3   3   1  164.68   13.30
  -3   3  -1  174.88   14.40
   3  -3   1  158.88   14.00
  -3  -3  -1  196.18   14.70
  -3  -3  -1  161.98   13.10
  -1   3  -2   42.90    5.40
  -1   3  -2   39.00    5.10
   1   3   2   49.40    5.20
   1   3   2   30.80    4.10
   1   3   2   44.10    5.70
  -1  -3  -2   37.90    5.40
  -1  -3  -2   37.10    4.70
   1  -3   2   35.80    5.10
  -1  -3  -2   36.90    5.30
   1  -3   2   45.20    5.70
  -1   3   3   71.99    6.50
   1   3  -3   79.59    5.10
   1   3  -3   73.09    5.00
  -1   3   3   77.39    5.20
  -1   3   3   77.69    5.60
  -1  -3   3   76.49    5.20
  -1  -3   3   71.99    5.00
   1  -3  -3   74.39    5.50
   1  -3  -3   69.79    6.50
   1  -3  -3   73.79    5.40
  -3   3   4    4.10    3.20
  -3   3   4   -1.00    3.50
   3   3  -4   -1.10    3.10
   3  -3  -4    5.20    4.50
  -3  -3   4    1.70    3.30
  -3  -3   4   -0.60    4.00
   3  -3  -4   -0.10    3.60
   5   3  -5   12.10    8.40
  -5   3   5   14.50    9.90
  -5   3   5    3.90    7.40
   5   3  -5   -4.90    7.10
   5  -3  -5    8.10    9.70
   5  -3  -5  -11.70   10.60
  -5  -3   5    7.80   12.40
   5  -3  -5    7.30    8.00
  -5   5   0   -8.20   15.50
   5   5   0   -1.30   15.50
  -5   5   0   14.80    9.40
   5   5   0   18.00    9.90
  -5  -5   0   -7.50    9.20
   5  -5   0    8.10   10.20
   5  -5   0    4.20   10.90
   5  -5   0   -5.20   10.90
  -5  -5   0   12.70   12.80
   3   5   1  281.57   17.80
  -3   5  -1  219.98   16.30
   3   5   1  231.18   16.80
   3   5   1  271.07   16.80
  -3  -5  -1  251.77   17.00
  -3  -5  -1  231.48   16.80
   3  -5   1  245.98   17.80
   3  -5   1  270.27   17.80
  -1   5  -2  152.28    9.80
   1   5   2  153.88   10.20
   1   5   2  138.09    9.50
   1   5   2  148.49    9.80
  -1   5  -2  133.09    9.40
   1  -5   2  147.79    8.20
  -1  -5  -2  142.09   10.40
   1  -5   2  161.88   10.30
  -1  -5  -2  138.69    9.90
  -1  -5  -2  149.19    9.60
   1  -5   2  139.69   10.00
   1   5  -3   82.99    6.40
   1   5  -3   74.89    5.90
  -1   5   3   86.69    6.80
  -1   5   3   84.19    7.20
  -1   5   3   73.69    7.10
   1   5  -3   72.09    6.40
   1  -5  -3   74.89    6.80
   1  -5  -3   82.59    7.40
   1  -5  -3   86.19    7.80
  -1  -5   3   73.59    6.50
  -3   5   4   24.70    5.00
   3   5  -4   23.20    4.90
  -3   5   4   45.70    6.50
  -3  -5   4   39.20    6.30
  -3  -5   4   32.90    5.30
   3  -5  -4   31.80    6.80
   3  -5  -4   29.10    5.80
   3  -5  -4   34.30    6.00
   5   5  -5   30.30    9.60
  -5   5   5   33.10    9.40
   5   5  -5   37.10    9.10
  -5   5   5   31.30   11.30
   5  -5  -5   54.09   12.50
   5  -5  -5   35.80    9.80
  -5  -5   5   25.00    9.30
  -5  -5   5   38.70   13.20
   5  -5  -5   21.70   12.50
   5   7   0   26.80   11.00
   5   7   0   54.89   13.10
   5   7   0   28.70   12.40
  -5   7   0   39.50   11.50
  -5   7   0   77.89   20.30
   5  -7   0   72.39   15.10
  -5  -7   0   37.70   12.80
  -5  -7   0   77.09   16.30
   5  -7   0   37.90   13.60
   5  -7   0   36.30   14.00
   3   7   1   58.59    8.80
  -3   7  -1   50.69    7.90
   3   7   1   56.69   11.00
  -3   7  -1   63.59    9.30
   3   7   1   50.19    7.80
   3  -7   1   46.40    9.20
  -3  -7  -1   59.29    9.60
  -3  -7  -1   39.20    7.90
   3  -7   1   63.49    9.60
  -1   7  -2  404.36   17.90
   1   7   2  409.06   20.10
   1   7   2  405.86   20.00
  -1   7  -2  424.46   20.60
  -1   7  -2  376.16   19.80
   1   7   2  406.76   20.30
   1  -7   2  409.36   18.30
   1  -7   2  398.46   20.30
  -1  -7  -2  416.26   20.30
  -1  -7  -2  394.76   20.40
  -1  -7  -2  361.06   19.80
   1  -7   2  392.06   20.80
  -1   7   3  118.69   10.20
   1   7  -3  110.39    9.00
  -1   7   3  121.79    9.60
   1   7  -3  119.39    8.80
   1   7  -3  109.79    8.00
  -1   7   3  104.19   10.10
   1  -7  -3  110.69    9.80
  -1  -7   3  112.69    9.60
  -3   7   4  131.79   13.50
   3   7  -4  135.89   12.40
  -3   7   4  120.79   12.10
   3   7  -4  118.49   11.80
   3  -7  -4  132.99   16.00
   3  -7  -4  130.89   12.80
   3  -7  -4  128.59   16.70
  -3  -7   4  117.69   12.40
  -3  -7   4  122.59   14.40
  -5  -7   5   34.20   14.10
   5   9   0   -1.30   13.20
  -5   9   0   -7.30   17.90
   5   9   0    6.60   13.30
   5   9   0   17.80   11.60
  -5   9   0   12.30   11.80
   5  -9   0  -10.30   14.60
   5  -9   0   -8.60   14.60
  -5  -9   0    4.20   14.40
  -5  -9   0   16.70   18.50
   5  -9   0  -23.80   14.90
   3   9   1    2.00    7.00
   3   9   1   -5.00    5.80
   3   9   1    6.80    7.10
  -3   9  -1    8.00    6.30
   3  -9   1    9.40    7.90
  -3  -9  -1    8.50    7.10
  -3  -9  -1   22.50   10.00
   3  -9   1    4.90    8.60
   3  -9   1   12.80    7.10
  -1   9  -2   29.70    4.30
   1   9   2   42.80    6.10
   1   9   2   21.30    5.40
  -1   9  -2   23.70    5.50
   1   9   2   20.50    5.30
  -1   9  -2   26.60    5.80
   1  -9   2   27.60    6.60
   1  -9   2   27.00    4.60
  -1  -9  -2   17.90    5.90
  -1  -9  -2   34.60    6.00
   1   9  -3   94.59    9.60
   1   9  -3   81.09   10.00
  -1   9   3   91.19   10.10
  -1   9   3   89.19   11.30
   1   9  -3   91.99    8.60
  -1   9   3   96.09   11.90
   1  -9  -3  117.79   11.80
  -1  -9   3   93.19   11.10
   1  -9  -3  104.79   11.50
   1  -9  -3   88.69   10.10
   3   9  -4    9.30    5.80
   3   9  -4   16.10    6.40
   3   9  -4    7.80    5.70
  -3   9   4   -1.20    5.30
   3  -9  -4   14.70    7.20
  -3  -9   4   14.30    8.30
  -3  -9   4   17.70    6.60
   3  -9  -4    6.20    8.00
   3  -9  -4    8.00    7.80
  -5   9   5   12.90   10.90
   5   9  -5    1.70   10.50
  -5   9   5    9.00   15.20
   5   9  -5    6.40   10.70
   5  -9  -5   -3.20   13.40
   5  -9  -5    7.70   14.90
  -3  11  -1   -3.40    8.40
   3  11   1    8.40    8.20
   3  11   1    5.10    7.60
   3  11   1   -2.00    8.90
  -3  11  -1    4.90    7.40
   3 -11   1   -6.70    9.60
   3 -11   1    5.10    9.90
  -3 -11  -1    0.10    8.40
  -3 -11  -1   16.90   11.60
   3 -11   1    7.00    9.00
  -1  11  -2   57.19    8.70
   1  11   2   30.80    7.30
  -1  11  -2   28.60    5.00
   1  11   2   39.60    8.10
  -1  11  -2   59.59   10.50
   1 -11   2   44.80    8.80
  -1 -11  -2   23.70    7.80
  -1 -11  -2   38.90    9.30
  -1 -11  -2   31.30   13.70
  -1  11   3  133.19   13.90
   1  11  -3  123.09   11.30
   1  11  -3  115.79   13.50
   1  11  -3  151.58   14.00
   1 -11  -3  136.89   16.10
  -1 -11   3  150.58   15.00
   1 -11  -3  134.89   15.90
   1 -11  -3  135.69   15.20
  -3  11   4   -4.90    7.20
  -3  11   4    1.80   10.40
   3  11  -4   17.00    7.70
   3  11  -4    9.90    7.60
   3  11  -4   12.00    6.70
  -3 -11   4    2.60    8.50
   3 -11  -4   12.00    9.50
   3 -11  -4   19.50   10.30
   3 -11  -4    9.80    9.10
  -3  13  -1   15.00   10.70
   3  13   1   51.59   12.20
   3  13   1   30.10   11.10
  -3  13  -1   57.09   14.20
   3  13   1   20.60   12.10
  -3 -13  -1   30.70   13.10
  -3 -13  -1   42.20   15.90
   3 -13   1   22.00   13.70
   3 -13   1   30.30   12.90
   3 -13   1   31.70   14.10
   1  13   2   11.00    7.10
   1  13   2   -2.20    7.70
   1  13   2   -5.30    7.30
  -1  13  -2    3.90    4.80
  -1  13  -2    6.70    7.50
  -1  13  -2   -2.60    7.60
   1 -13   2    7.90    6.30
  -1 -13  -2    4.60    9.10
   1 -13   2    5.00   10.00
  -1 -13  -2    6.50    7.60
   1 -13   2    1.10    8.60
  -1 -13  -2    9.90   10.00
  -1  13   3  355.46   24.30
  -1  13   3  397.46   25.20
  -1  13   3  350.36   37.70
   1  13  -3  363.56   21.90
   1  13  -3  393.46   25.10
   1  13  -3  409.66   25.60
   1 -13  -3  381.06   26.90
  -1 -13   3  419.76   30.30
   1 -13  -3  428.86   26.40
   1 -13  -3  383.16   26.50
   3  13  -4   -4.90    7.50
  -3  13   4   -2.20   13.80
   3  13  -4    2.40    9.20
   3  13  -4    7.80    9.90
  -3  13   4   -0.10    8.90
  -3 -13   4    1.80   10.80
   3 -13  -4   25.40   13.00
  -3 -13   4   22.30   15.10
   3 -13  -4   -7.70   12.30
   3  15   1   17.20   15.00
  -3  15  -1    5.30   13.60
  -3  15  -1  -18.40   18.60
   3  15   1   -9.20   13.20
   3  15   1   -4.70   12.90
  -3 -15  -1   -5.60   19.00
   3 -15   1   -6.50   17.90
  -3 -15  -1   10.70   21.30
   3 -15   1  -16.60   14.70
   3 -15   1   31.10   18.80
   1  15   2   55.09   12.40
  -1  15  -2   52.09    8.60
   1  15   2   49.99   12.40
  -1  15  -2   65.29   13.00
   1  15   2   54.89   11.60
  -1  15  -2   47.00   11.40
  -1 -15  -2   55.19   12.20
   1 -15   2   54.59   13.80
  -1 -15  -2   49.50   13.90
   1 -15   2   37.50    9.50
  -1 -15  -2   49.70   14.80
   1 -15   2   21.30   14.20
   1  15  -3    7.70    9.90
  -1  15   3    1.80    9.90
   1  15  -3    3.60    9.00
  -1  15   3    9.40   12.50
  -1  15   3    1.00    8.80
   1  15  -3    6.80    6.60
   1 -15  -3  -25.70    9.90
  -1 -15   3  -14.40   14.50
   1 -15  -3   -6.10   12.20
  -1 -15   3    0.60   11.50
   3  15  -4    8.00   10.30
  -3  15   4   36.40   22.30
   3  15  -4   -4.60   12.70
   3 -15  -4   36.60   18.20
   3 -15  -4   14.50   15.30
  -3 -15   4   16.80   20.20
   1  17   2   30.30   14.70
   1  17   2   37.00   12.60
  -1  17  -2   18.70   13.50
   1  17   2   33.70   15.40
  -1  17  -2   16.90   14.40
  -1  17  -2   13.60    9.50
   1 -17   2   -1.20   18.30
  -1 -17  -2   20.60   17.80
   1 -17   2   44.70   13.40
   1 -17   2    5.50   18.40
  -1 -17  -2  -28.30   19.00
  -1 -17  -2   23.30   16.30
   1  17  -3   -6.80   12.80
  -1  17   3   23.10   17.60
   1  17  -3   -8.50    9.30
  -1  17   3   -7.80   11.60
   1 -17  -3  -32.50   15.40
   1 -17  -3   17.20   17.30
  -1 -17   3  -43.90   22.90
  -6   0   0   53.29   23.70
  -6   0   0   -1.60   14.80
   6   0   0  -10.70   13.90
   6   0   0    4.10   15.10
   4   0   1    2.40    6.40
   4   0   1   -6.40    6.20
  -4   0  -1    4.90    6.40
  -2   0  -2   26.90    4.60
   2   0   2   32.30    5.00
  -2   0  -2   27.40    4.40
   2   0   2   20.80    4.00
   0   0  -3   -1.00    1.20
   0   0  -3    0.20    0.90
   0   0   3    0.20    1.10
   0   0   3   -0.10    1.20
   0   0   3    0.30    1.00
   0   0  -3    0.00    1.20
  -2   0   4  452.65   18.50
   2   0  -4  464.25   18.40
   2   0  -4  473.55   18.60
  -4   0   5    2.20    4.70
   4   0  -5    0.40    4.50
  -4   0   5   -9.50    5.80
   4   0  -5   -6.50    4.80
   6   2   0  -27.70   13.90
   6   2   0  -19.90   17.00
  -6   2   0    9.40   25.30
  -6  -2   0   59.19   22.30
   6  -2   0   -5.80   14.70
   6  -2   0   -8.00   17.60
  -4   2  -1   22.50    8.40
   4   2   1   15.20    7.50
  -4   2  -1   15.10    6.50
   4   2   1   20.80    6.90
   4  -2   1    1.40    7.50
  -4  -2  -1   22.30    7.20
   4  -2   1   20.80    7.50
  -4  -2  -1   18.90    7.40
  -2   2  -2  252.67   14.00
   2   2   2  232.78   13.80
   2   2   2  235.98   13.70
  -2   2  -2  240.58   13.70
   2  -2   2  227.18   13.50
  -2  -2  -2  243.08   14.20
   2  -2   2  220.18   13.90
  -2  -2  -2  227.48   13.70
   0   2   3  279.87   11.80
   0   2   3  268.37   11.80
   0   2  -3  249.97   11.40
   0   2   3  251.97   11.90
   0   2  -3  262.97   11.50
   0  -2   3  250.87   11.50
   0  -2  -3  265.87   11.80
   0  -2  -3  259.17   11.70
   0  -2  -3  271.67   12.10
   0  -2   3  265.17   11.50
   2   2  -4   69.29    5.30
   2   2  -4   71.19    5.30
  -2   2   4   60.09    5.10
   2  -2  -4   63.99    6.60
   2  -2  -4   68.69    8.30
   2  -2  -4   65.29    5.60
  -2  -2   4   61.49    5.10
   4   2  -5  123.39   12.20
   4   2  -5  138.59   11.90
  -4   2   5  129.99   11.90
  -4   2   5  136.59   13.70
   4  -2  -5  125.09   16.80
   4  -2  -5  121.39   12.20
   4  -2  -5  141.89   13.20
  -4  -2   5  107.99   11.90
  -4  -2   5  127.89   14.80
   4   4   1    5.20    6.80
  -4   4  -1    1.10    8.30
   4   4   1   -2.70    6.70
  -4   4  -1   -5.90    5.70
  -4  -4  -1   -3.70    7.40
   4  -4   1   -3.70    7.60
   4  -4   1   -1.10    7.50
  -4  -4  -1    9.10    6.50
   2   4   2  715.83   31.70
   2   4   2  724.43   31.10
  -2   4  -2  669.83   31.20
  -2   4  -2  737.83   32.20
   2   4   2  714.53   31.70
   2  -4   2  748.03   32.20
   2  -4   2  728.33   31.90
  -2  -4  -2  701.73   31.60
  -2  -4  -2  742.23   32.30
   0   4  -3    1.50    1.90
   0   4   3    3.10    2.30
   0   4   3    3.50    2.20
   0   4   3    1.80    2.10
   0   4  -3    2.90    1.00
   0   4  -3    2.60    2.20
   0  -4   3    2.80    2.00
   0  -4  -3    0.50    2.10
   0  -4  -3    2.70    2.10
   0  -4  -3    6.80    2.40
   0  -4   3    3.40    2.10
   2   4  -4  128.99    8.00
   2   4  -4  111.89    7.70
  -2   4   4  122.29    8.50
  -2   4   4   99.59    7.70
  -2  -4   4  112.79    8.20
  -2  -4   4  111.99    7.70
   2  -4  -4   96.29    8.00
   2  -4  -4  118.89    8.50
   2  -4  -4  117.59    9.60
   4   4  -5   22.20    9.00
   4   4  -5   19.10    5.60
  -4   4   5   17.00    6.90
  -4   4   5   24.60    6.70
  -4  -4   5   10.60    6.70
   4  -4  -5   24.00    7.30
   4  -4  -5   20.00    6.30
   4  -4  -5   21.70    7.70
  -4  -4   5   21.20    7.60
   4   6   1    4.10    7.60
   4   6   1    7.80    7.50
  -4   6  -1    2.20    6.60
   4  -6   1    6.00    8.80
   4  -6   1   -1.50    7.90
  -4  -6  -1   -5.10    7.30
   4  -6   1   -4.50    7.50
  -4  -6  -1   14.60    9.20
  -2   6  -2   43.60    5.50
   0   6  -3  189.68   10.90
   0   6   3  168.18   10.90
   0   6  -3  184.38   10.90
   0   6  -3  170.88    8.50
   0   6   3  168.98   11.30
   0   6   3  171.68   11.30
   0  -6   3  189.98   11.20
   0  -6  -3  168.08   10.90
   0  -6   3  173.98    8.70
   0  -6   3  177.98   11.20
   0  -6  -3  178.18   11.60
   0  -6  -3  167.38   11.30
  -2   6   4   97.59   10.60
   2   6  -4   98.29    8.50
  -2   6   4  109.99    9.00
  -2   6   4  101.59   10.20
  -2  -6   4   96.29    8.80
   2  -6  -4  100.29    9.50
  -2  -6   4  100.89    9.70
  -4   6   5   -4.70    6.70
  -4   6   5   -1.00    5.40
   4   6  -5   -3.70    6.90
  -4  -6   5    5.30    5.80
  -4  -6   5   12.90    8.60
   4  -6  -5   -1.20    8.20
   4  -6  -5  -10.20    7.60
   4  -6  -5   -5.40    6.40
  -4   8  -1  186.78   19.10
  -4   8  -1  195.38   24.20
   4   8   1  199.38   21.00
   4   8   1  159.18   20.90
   4  -8   1  177.58   22.90
   4  -8   1  207.88   22.60
  -4  -8  -1  166.58   24.30
   4  -8   1  199.08   20.60
  -2   8  -2  164.88   14.60
   2   8   2  157.58   13.70
  -2   8  -2  135.99   12.90
   2   8   2  145.49   13.60
   2   8   2  163.38   14.70
  -2  -8  -2  143.09   13.70
  -2  -8  -2  164.48   15.00
   2  -8   2  169.18   14.80
   2  -8   2  157.88   12.40
   2  -8   2  163.08   14.80
   0   8  -3  124.39   10.50
   0   8   3  128.59   11.10
   0   8   3  120.69   10.30
   0   8  -3  115.99    7.80
   0   8   3  126.89   11.40
   0  -8   3  121.59   10.80
   0  -8   3  129.79   11.50
   0  -8  -3  114.89   10.70
   0  -8   3  120.59    8.50
  -2   8   4   67.79    9.50
   2   8  -4   81.19    9.30
  -2   8   4   62.19    8.20
   2   8  -4   79.49    9.00
  -2   8   4   55.19    7.60
   2   8  -4   66.29    9.20
   2  -8  -4   51.89    7.60
   2  -8  -4   51.99    7.50
  -2  -8   4   64.89    8.00
   2  -8  -4   44.60    7.40
  -2  -8   4   73.39   10.30
  -4   8   5   -9.40    8.70
   4   8  -5    1.40    6.50
   4   8  -5    8.10    8.60
  -4   8   5    6.10    6.80
   4  -8  -5   15.30    9.60
  -4  -8   5    4.50   10.40
   4  -8  -5    2.40    8.40
   4  -8  -5    5.10    9.80
  -4  10  -1  161.28   20.30
   4  10   1  119.39   15.70
  -4  10  -1  122.19   17.10
   4  10   1  159.08   23.60
   4  10   1  100.89   14.10
  -4 -10  -1   84.89   14.30
   4 -10   1  137.89   17.70
   4 -10   1  121.79   17.00
  -4 -10  -1  138.29   19.20
   4 -10   1  155.98   16.60
   2  10   2  597.14   31.10
  -2  10  -2  527.65   33.10
  -2  10  -2  569.14   30.40
   2  10   2  638.74   31.10
   2 -10   2  635.24   32.50
  -2 -10  -2  535.15   34.70
  -2 -10  -2  585.24   36.00
   0  10  -3   22.80    5.80
   0  10   3   23.10    5.70
   0  10  -3   25.70    5.60
   0  10  -3   29.20    4.20
   0  10   3   31.20    6.40
   0 -10   3   34.90    6.50
   0 -10   3   28.30    6.70
   0 -10  -3   29.10    7.20
   0 -10   3   34.60    4.90
   0 -10  -3   32.70    6.70
   0 -10  -3   31.70    6.80
   2  10  -4    9.90    5.10
   2  10  -4   -0.70    4.10
  -2  10   4   -4.40    4.90
   2  10  -4    4.50    5.40
  -2  10   4    7.90    6.30
  -2 -10   4    3.30    5.80
   2 -10  -4    4.10    6.20
  -2 -10   4    3.40    6.80
   2 -10  -4   10.40    6.70
   2 -10  -4    3.20    7.40
   4  10  -5  337.27   25.00
  -4  10   5  391.66   32.20
   4  10  -5  323.67   25.30
   4  10  -5  374.36   27.00
  -4  10   5  322.47   24.90
  -4 -10   5  284.37   25.50
   4 -10  -5  371.46   32.10
   4 -10  -5  353.86   31.20
   4 -10  -5  318.17   28.00
  -4 -10   5  341.07   30.40
   4  12   1   35.40   12.60
   4  12   1   30.00   12.60
  -4  12  -1   62.29   13.30
  -4  12  -1   53.59   16.60
   4  12   1   12.90   14.30
   4 -12   1   50.09   16.50
  -4 -12  -1   35.80   14.70
  -4 -12  -1    8.30   19.90
   4 -12   1   22.70   15.80
   4 -12   1   18.00   16.70
   2  12   2   84.09   11.70
  -2  12  -2   63.09   11.50
   2  12   2   59.79   10.30
  -2  12  -2   70.39   10.50
   2  12   2   63.39   10.70
   2 -12   2   55.49    8.80
  -2 -12  -2   26.80   10.40
   2 -12   2   47.70   10.70
  -2 -12  -2   59.59   12.50
   2 -12   2   78.99   12.50
   0  12  -3  104.19   14.20
   0  12   3  119.69   13.40
   0  12   3  124.99   14.50
   0  12  -3  123.79   15.00
   0  12   3  104.49   14.50
   0  12  -3  104.29   10.80
   0 -12   3  132.79   16.70
   0 -12  -3   85.29   11.90
   0 -12  -3   75.29   11.50
   0 -12  -3  129.69   15.90
  -2  12   4   -2.60    7.70
   2  12  -4    0.00    5.60
   2  12  -4    8.70    7.10
   2  12  -4    1.50    6.60
  -2  12   4   11.40    9.80
   2 -12  -4   12.00    9.10
   2 -12  -4   10.70    8.80
   2 -12  -4    5.60    9.50
   4  12  -5  126.49   16.90
   4  12  -5  221.18   23.80
   4  12  -5  183.08   24.20
  -4  12   5  160.28   23.80
  -4  12   5  170.88   37.30
  -4 -12   5  125.29   16.80
   4 -12  -5  204.48   30.20
   4 -12  -5  126.49   20.20
   4 -12  -5  151.38   20.40
  -2  14  -2    7.60    9.30
   2  14   2    3.70    9.40
   2  14   2  -17.70   10.40
   2  14   2   -8.20    8.80
   2 -14   2   -5.90   12.90
  -2 -14  -2  -13.10   11.50
   2 -14   2    2.40    8.80
  -2 -14  -2    4.80   13.50
   2 -14   2   -7.30   12.80
   0  14  -3   45.20    9.90
   0  14   3   43.40   10.20
   0  14  -3   50.99    7.60
   0  14   3   52.29    9.80
   0  14   3   60.99   12.30
   0  14  -3   73.49   10.90
   0 -14  -3   71.59   11.80
   0 -14   3   61.59   11.90
   0 -14  -3   80.79   14.00
   0 -14   3   52.79    8.90
   0 -14   3   38.00   10.80
   0 -14  -3   49.80   12.60
   2  14  -4    7.70    9.50
   2  14  -4   -7.60    9.20
  -2  14   4    4.70   10.30
  -2  14   4   16.70    9.60
  -2  14   4  -10.70   12.30
   2  14  -4    9.60    7.20
   2 -14  -4   -0.20   11.60
   2 -14  -4   -0.80   11.80
  -2 -14   4   -0.30   11.20
   2 -14  -4   -4.10   12.90
  -2 -14   4  -14.50   15.90
  -2  16  -2   -9.20   14.80
   2  16   2   30.40   14.60
  -2  16  -2    8.40   13.10
   2  16   2  -10.50   12.90
  -2 -16  -2   15.90   16.90
  -2 -16  -2   -7.40   18.70
   2 -16   2   24.80   13.00
   2 -16   2   13.20   18.10
   2 -16   2   -2.90   20.40
   0  16   3   26.60   11.90
   0  16   3   44.80   14.70
   0  16   3   39.40   11.70
   0  16  -3   30.30    8.30
   0  16  -3   24.90   11.40
   0  16  -3   43.80   12.50
   0 -16   3   44.10   12.40
   0 -16   3   38.60   14.30
   0 -16  -3   54.49   17.30
   0 -16  -3   17.10   12.10
   0 -16  -3   22.90   15.20
   0 -16   3   37.40   16.00
   2  16  -4   13.10   20.20
   2  16  -4    5.10    9.10
   2  16  -4    2.40   12.40
  -2  16   4   -0.60   18.40
  -2  16   4    4.20   14.00
  -2 -16   4   21.60   21.60
   2 -16  -4   -2.10   17.00
   2 -16  -4   25.10   15.20
  -5   1  -1   22.20   13.50
  -5   1  -1   10.40    8.50
   5   1   1   -7.70    9.40
   5   1   1    6.20    9.90
  -5  -1  -1    9.70   13.30
   5  -1   1    1.30    9.80
  -5  -1  -1   10.70    9.60
   5  -1   1  -14.30   10.20
   3  -1   2   36.10    4.80
   3  -1   2   20.10    5.90
  -1   1  -3 1023.50   41.10
  -1   1  -3 1032.20   41.20
   1   1   3 1048.50   41.30
   1   1   3 1062.69   40.40
   1   1   3 1078.19   41.30
  -1  -1  -3 1055.99   41.30
  -1  -1  -3 1007.40   41.10
   1  -1   3 1046.20   41.30
   1  -1   3 1082.79   41.30
  -1   1   4  788.02   30.60
  -1   1   4  860.71   30.70
   1   1  -4  871.61   32.30
   1  -1  -4  827.22   30.50
   1  -1  -4  797.32   30.50
   1  -1  -4  842.32   32.90
   3   1  -5   69.99    8.10
  -3   1   5   64.09    6.70
  -3   1   5   63.69    8.10
   3   1  -5   77.09    6.70
  -3  -1   5   61.59    6.60
   3  -1  -5   73.59    7.30
   5   1  -6    6.10    9.00
   5   1  -6   12.80    7.10
  -5   1   6    6.20    9.50
   5  -1  -6    8.20    8.80
   5  -1  -6   -3.00   10.60
  -5  -1   6    1.40    9.80
   5  -1  -6   12.60    7.20
   5   3   1   39.20   11.00
  -5   3  -1   46.70   11.00
   5   3   1   46.50   11.60
  -5   3  -1   83.99   16.60
  -5  -3  -1   64.89   13.50
   5  -3   1   46.60   12.50
  -5  -3  -1   37.40   11.30
   5  -3   1   62.49   12.80
   3   3   2   39.90    6.60
  -3   3  -2   42.40    6.80
   3  -3   2   46.30    7.60
  -3  -3  -2   43.70    7.20
  -1   3  -3 3152.78  115.79
   1   3   3 3069.79  115.29
   1   3   3 3187.68  115.99
   1   3   3 3078.99  115.89
  -1   3  -3 2933.21  115.29
   1  -3   3 3221.58  115.99
  -1  -3  -3 3267.97  116.29
  -1  -3  -3 3129.49  115.29
  -1  -3  -3 3026.40  115.79
   1  -3   3 3040.40  115.79
  -1   3   4   51.59    6.30
  -1   3   4   57.39    4.60
   1   3  -4   50.69    4.50
   1   3  -4   57.69    4.20
  -1   3   4   61.09    5.00
   1  -3  -4   63.99    6.80
  -1  -3   4   55.69    4.50
   1  -3  -4   56.39    4.90
   3   3  -5   10.50    3.60
  -3   3   5   11.80    3.90
  -3   3   5   17.30    3.70
   3  -3  -5   17.10    4.20
  -3  -3   5   13.60    3.50
   3  -3  -5   16.90    5.70
  -3  -3   5   15.70    4.50
   5   3  -6   -8.60    7.70
   5   3  -6    3.20    7.10
  -5   3   6    5.60    9.10
  -5   3   6    3.40    7.20
  -5  -3   6    0.00   11.60
   5  -3  -6    4.40    7.30
   5  -3  -6  -10.00   10.50
   5  -3  -6   -4.40   12.30
  -5   5  -1   39.10   16.60
  -5   5  -1   13.50   10.40
   5   5   1    1.50    9.00
   5   5   1    7.10   10.50
   5   5   1   10.10   10.20
   5  -5   1    8.80   12.30
  -5  -5  -1    3.00   10.60
  -5  -5  -1   -8.90   12.40
   5  -5   1  -20.40   11.20
  -3   5  -2    0.70    4.70
  -3   5  -2    1.60    5.40
   3   5   2    2.30    5.60
   3   5   2   -4.00    5.10
   3   5   2   -2.30    4.20
   3  -5   2   -0.50    6.20
  -3  -5  -2   -5.40    5.10
   3  -5   2   -9.60    5.50
   1   5   3  176.78   11.40
   1   5   3  180.98   11.90
  -1   5  -3  194.68   11.40
  -1   5  -3  169.58   11.20
   1   5   3  173.98   11.70
   1  -5   3  182.38   11.80
  -1  -5  -3  189.48   11.70
   1  -5   3  184.48    8.90
  -1  -5  -3  176.78   11.50
  -1  -5  -3  160.18   11.70
   1  -5   3  179.88   11.40
  -1   5   4    3.10    2.90
   1   5  -4    6.20    2.30
   1   5  -4    2.80    1.80
  -1   5   4    4.30    2.40
   1   5  -4    0.60    2.40
  -1   5   4    6.80    2.80
  -1  -5   4    4.30    2.50
   1  -5  -4    1.50    2.70
  -1  -5   4    6.20    2.50
   1  -5  -4    7.00    3.00
   1  -5  -4    4.70    2.70
  -3   5   5    6.70    4.20
   3  -5  -5    7.00    5.60
  -3  -5   5    7.90    5.00
   3  -5  -5    7.90    4.40
  -3  -5   5    7.50    3.80
   5   5  -6   15.90    9.50
  -5   5   6   14.30    8.40
  -5   5   6   36.40   10.60
  -5  -5   6   23.60    8.60
  -5  -5   6   28.40   13.00
   5  -5  -6   16.00    8.90
   5  -5  -6   22.10   11.50
   5  -5  -6   37.80   13.30
  -5   7  -1    8.70   17.20
   5   7   1   23.10   12.00
   5   7   1   52.69   13.80
  -5   7  -1   16.80   11.40
   5   7   1   26.80   10.30
   5  -7   1   41.30   13.80
   5  -7   1   26.00   13.70
   5  -7   1   25.30   14.00
  -5  -7  -1    2.50   12.30
  -5  -7  -1   55.09   16.40
  -3   7  -2   30.60    8.40
   3   7   2   16.80    7.00
  -3   7  -2   16.90    6.30
  -3  -7  -2   22.10    8.00
  -3  -7  -2   11.90    7.40
   3  -7   2   16.50    7.50
   3  -7   2   19.60   11.10
  -1   7  -3   11.10    3.90
   1   7   3   18.50    4.90
   1   7   3   14.50    4.00
  -1  -7  -3   -1.70    4.10
   1  -7   3    7.30    4.20
   1  -7   3    9.50    2.70
  -1  -7  -3    9.80    4.30
   1  -7   3   10.20    4.40
  -1   7   4  292.47   16.80
   1   7  -4  276.67   13.80
   1   7  -4  346.87   15.10
  -1   7   4  295.47   16.20
   1   7  -4  280.37   15.40
  -1   7   4  288.67   15.90
  -1  -7   4  290.27   15.90
  -1  -7   4  278.87   15.80
   1  -7  -4  263.97   16.10
  -3   7   5   -1.00    4.90
   3   7  -5   -4.20    4.10
  -3   7   5   -1.90    5.60
   3   7  -5   -3.90    4.90
  -3  -7   5   -9.10    6.10
   3  -7  -5    5.00    6.00
  -3  -7   5    0.40    4.70
   3  -7  -5   -0.40    5.10
   3  -7  -5    4.30   11.80
   5   7  -6   10.50   10.30
  -5   7   6   11.20   11.40
   5   7  -6   15.40    8.50
  -5   7   6   12.50    9.40
  -5  -7   6   10.20    9.90
  -5  -7   6   26.30   14.60
   5  -7  -6    6.70   13.60
   5  -7  -6   46.90   16.80
   5  -7  -6    0.70   10.20
  -5   9  -1    5.40   20.60
   5   9   1   -8.30   12.40
   5   9   1   25.80   15.20
  -5   9  -1   16.50   13.50
   5   9   1    6.50   13.30
  -5  -9  -1    1.60   19.50
   5  -9   1  -23.50   15.40
   5  -9   1  -22.00   15.70
   5  -9   1  -17.50   15.90
  -5  -9  -1   25.40   14.90
  -3   9  -2    8.80    6.90
  -3   9  -2   13.10    8.20
   3   9   2    1.20    7.80
   3  -9   2    2.70    8.60
  -3  -9  -2    2.30    9.10
  -3  -9  -2    5.60    8.30
   3  -9   2    0.10    8.60
   3  -9   2   -5.50    6.40
   1   9   3  654.93   30.90
  -1   9  -3  678.73   31.20
  -1   9  -3  660.43   27.50
   1   9   3  646.74   31.30
  -1   9  -3  652.03   31.10
  -1  -9  -3  683.43   32.20
   1  -9   3  625.24   31.40
  -1  -9  -3  613.34   31.30
   1  -9   3  638.54   31.30
   1  -9   3  664.63   28.00
  -1  -9  -3  672.23   31.50
   1   9  -4  138.29   11.90
   1   9  -4  162.68   12.60
  -1   9   4  152.78   12.90
  -1   9   4  152.18   14.00
  -1   9   4  146.29   13.80
   1   9  -4  151.48   10.20
  -1  -9   4  156.48   13.30
  -1  -9   4  160.78   13.40
   1  -9  -4  158.68   13.30
   1  -9  -4  157.28   14.20
   1  -9  -4  155.28   13.20
   3   9  -5   -6.40    5.20
   3   9  -5   16.20    6.00
  -3   9   5   -5.00    5.30
  -3   9   5  -18.00    8.00
   3   9  -5    8.10    6.30
   3  -9  -5   10.40    8.30
  -3  -9   5   14.60    8.40
   3  -9  -5    0.30    7.20
   3  -9  -5    1.10    8.10
  -3  -9   5   -2.70    6.10
   5   9  -6    6.80   11.60
   3  11   2    7.20   10.00
  -3  11  -2   25.00   10.20
   3  11   2    1.40    8.30
  -3  11  -2   -3.60    7.60
   3 -11   2    6.50   11.60
   3 -11   2   -2.20   10.60
   3 -11   2    5.30   10.10
  -3 -11  -2   -5.10    9.40
  -3 -11  -2  -12.00   11.30
  -1  11  -3  119.89   15.10
  -1  11  -3   89.29   13.50
   1  11   3  105.69   14.60
   1  11   3   84.69   10.60
  -1  11  -3  113.09   10.20
   1  11   3  113.39   13.20
  -1 -11  -3  128.99   15.60
   1 -11   3  111.89   14.50
   1 -11   3  116.39   11.20
  -1 -11  -3  115.09   14.80
   1 -11   3   73.79   10.80
  -1 -11  -3  121.59   17.10
  -1  11   4   12.30    6.20
  -1  11   4   33.70    8.00
   1  11  -4   10.20    5.70
   1  11  -4    8.40    4.00
   1  11  -4   13.40    5.80
   1 -11  -4   11.80    7.20
   1 -11  -4   11.40    6.90
  -1 -11   4    7.10    6.50
   3  11  -5  -10.20    6.80
   3  11  -5   -0.30    6.50
  -3  11   5   -4.60    7.00
   3  11  -5    2.60    7.90
  -3 -11   5  -16.60   10.10
   3 -11  -5  -21.80    9.10
   3 -11  -5    2.90   10.50
  -3 -11   5   -1.90    8.40
   3 -11  -5    6.10    9.60
  -3  13  -2   40.10   14.00
   3  13   2    1.90   11.60
   3  13   2   23.10   10.90
  -3  13  -2    9.20   10.10
   3  13   2    0.00   12.90
   3 -13   2   22.50   15.40
  -3 -13  -2    7.00   15.30
  -3 -13  -2   28.80   13.30
   3 -13   2   28.40   14.70
   3 -13   2   11.70   12.20
   1  13   3  -12.60    7.50
   1  13   3   -5.00    6.90
   1  13   3   12.40    8.50
  -1  13  -3   -2.30    7.30
  -1  13  -3    1.00    4.80
  -1  13  -3   -4.60    7.60
  -1 -13  -3    2.70    9.50
   1 -13   3    8.40   10.60
  -1 -13  -3   -0.50    9.30
  -1 -13  -3    6.00    8.00
   1 -13   3  -10.40    9.20
   1  13  -4   30.60    6.20
   1  13  -4   29.10    8.00
  -1  13   4   27.80    8.60
   1  13  -4   23.70    7.60
  -1  13   4   30.00   12.50
   1 -13  -4   37.00   10.60
   1 -13  -4   31.80    9.70
   1 -13  -4   32.20   10.50
  -3  13   5  -11.70    8.80
   3  13  -5   15.80    9.50
   3  13  -5   -4.10    7.60
   3  13  -5    4.60   10.30
   3 -13  -5    6.80   12.80
   3 -13  -5  -11.90   12.90
   3 -13  -5   22.70   14.60
  -3 -13   5  -27.70   13.70
  -3 -13   5   -3.00   11.60
   3  15   2   -5.10   18.30
  -1  15  -3   -2.00    9.70
  -1  15  -3  -11.50    9.50
  -1  15  -3   -6.20    7.20
   1  15   3    4.40   10.10
   1  15   3   -9.70   10.10
   1  15   3    4.80   10.10
   1 -15   3   -8.90   12.30
  -1 -15  -3   -9.50   10.50
  -1 -15  -3   -0.20   12.90
  -1 -15  -3    1.00   14.30
   1 -15   3   -8.40   14.60
  -1  15   4    8.00    9.70
  -1  15   4   29.60   13.50
   1  15  -4   17.80   10.50
   1  15  -4   13.20    8.20
   1  15  -4   44.00   11.00
  -1  15   4   18.50   10.40
   1 -15  -4   -4.50   13.50
  -1 -15   4   12.20   17.90
   1 -15  -4   19.80   11.40
   1 -15  -4   10.90   12.60
  -1 -15   4   12.50   12.00
  -6   0  -1  -36.60   24.70
   6   0   1   34.60   16.00
  -4   0  -2 1760.02   76.79
   4   0   2 1865.51   78.09
  -4   0  -2 1974.50   78.89
   4   0   2 1950.80   77.99
  -2   0  -3   -0.20    3.10
   2   0   3   -2.30    3.20
   2   0   3    5.00    3.70
  -2   0  -3    4.80    3.50
   0   0  -4   47.70    4.10
   0   0   4   29.80    3.70
   0   0  -4   42.90    4.10
   0   0   4   41.80    4.00
   0   0   4   42.00    3.80
   0   0  -4   45.90    3.60
   2   0  -5   -0.80    1.00
   2   0  -5   -1.00    2.90
   2   0  -5   -0.30    0.90
  -2   0   5   -1.30    1.10
  -2   0   5   -1.70    1.20
   4   0  -6  226.38   14.00
  -4   0   6  220.08   15.40
  -4   0   6  170.08   13.00
  -6   2  -1   21.20   27.30
   6   2   1  -16.20   14.60
   6  -2   1  -10.30   15.70
  -6  -2  -1   -8.20   24.30
  -4   2  -2   79.09   12.00
   4   2   2   56.19    9.70
  -4   2  -2   38.90    8.20
  -4  -2  -2   55.49   10.40
  -4  -2  -2   53.09    9.30
   4  -2   2   42.80   10.10
   4  -2   2   43.70    8.90
   2   2   3   14.30    4.20
  -2   2  -3   13.30    4.30
   2   2   3    9.40    3.40
  -2   2  -3    4.90    3.70
   2   2   3   12.90    4.40
   2  -2   3    9.60    4.00
  -2  -2  -3   10.50    4.00
  -2  -2  -3    9.80    3.80
   2  -2   3   11.40    4.20
   0   2   4   98.29    6.60
   0   2  -4  102.49    4.20
   0   2   4   95.39    6.40
   0   2   4  104.59    6.60
   0   2  -4   99.19    6.20
   0   2  -4   90.29    6.10
   0  -2   4   94.69    6.30
   0  -2  -4   93.39    6.40
   0  -2  -4  100.29    6.90
   0  -2  -4  103.39    6.60
   0  -2   4  106.69    6.30
   2   2  -5  760.12   28.30
  -2   2   5  638.74   31.90
   2   2  -5  774.42   28.30
  -2   2   5  721.83   29.00
   2  -2  -5  801.72   29.10
   2  -2  -5  753.72   29.10
  -2  -2   5  740.93   28.50
   2  -2  -5  776.32   32.40
  -2  -2   5  772.22   28.80
   4   2  -6  196.08   13.40
  -4   2   6  184.38   13.40
  -4   2   6  174.58   14.40
   4  -2  -6  193.78   20.20
   4  -2  -6  209.08   15.20
   4  -2  -6  192.48   14.20
  -4  -2   6  200.68   16.10
  -4  -2   6  163.38   13.00
   4   4   2    3.60    6.00
   4   4   2   -9.20    7.20
  -4   4  -2    3.40    6.50
   4   4   2   -0.20    7.30
   4  -4   2   16.50    8.90
  -4  -4  -2   -0.40   10.70
   4  -4   2   -8.50    8.10
  -4  -4  -2   13.50    7.80
   2   4   3  114.59   11.30
   2   4   3  130.59   10.30
  -2   4  -3  128.49   11.00
   2   4   3  128.29   11.20
  -2  -4  -3  108.19   10.30
   2  -4   3  122.79   11.60
  -2  -4  -3  142.49   10.70
   2  -4   3  116.79   10.70
   0   4   4  237.78   12.00
   0   4   4  220.78   12.30
   0   4  -4  228.68   11.50
   0   4  -4  221.08   11.50
   0  -4   4  220.48   11.70
   0  -4   4  242.78   11.80
   0  -4  -4  240.68   12.30
   0  -4  -4  222.18   12.40
   0  -4  -4  211.58   11.70
  -2   4   5    0.90    2.20
  -2   4   5    3.10    2.80
   2   4  -5   -0.50    2.40
   2   4  -5    2.00    2.30
   2  -4  -5    3.90    2.70
   2  -4  -5    3.30    2.80
  -2  -4   5   -1.30    2.10
  -2  -4   5    2.80    3.10
  -4   4   6   49.50    7.90
   4   4  -6   51.59    6.70
  -4  -4   6   43.70    6.60
   4  -4  -6   55.39    9.70
   4  -4  -6   43.60    7.00
  -4  -4   6   39.00    8.50
   4   6   2   62.29   11.30
  -4   6  -2   63.89   10.60
   4   6   2   71.99   11.50
  -4   6  -2   75.69   13.40
   4  -6   2   73.79   11.90
   4  -6   2   70.49   11.90
   4  -6   2   69.69   12.60
  -4  -6  -2   49.80   10.30
  -4  -6  -2   67.49   12.30
   2   6   3   47.00    7.10
   2   6   3   65.09    8.90
  -2   6  -3   67.99    9.60
   2  -6   3   61.89    7.40
  -2  -6  -3   54.69    7.50
   2  -6   3   50.09    7.30
   0   6  -4   89.19    5.20
   0   6   4   90.79    8.70
   0   6  -4  100.09    8.40
   0   6   4   89.29    8.90
   0   6   4   88.69    8.10
   0   6  -4  101.79    8.30
   0  -6  -4  103.49    8.90
   0  -6   4   95.79    8.90
   0  -6  -4   81.19    9.00
   0  -6   4   97.39    8.40
   0  -6  -4   91.39    8.70
  -2   6   5   98.29   11.30
   2   6  -5  132.99    8.80
   2   6  -5  107.99    8.80
  -2   6   5   85.59    8.90
  -2   6   5  106.99   10.10
   2  -6  -5   95.39    9.50
   2  -6  -5   99.19   12.00
  -2  -6   5  101.69    9.00
  -2  -6   5  119.19   10.10
  -4   6   6    2.70    5.60
  -4   6   6    1.90    6.90
   4   6  -6  -14.80    6.90
   4   6  -6    1.90    5.30
   4  -6  -6    7.80    8.50
   4  -6  -6    8.40    6.70
  -4  -6   6   -4.20    5.40
   4  -6  -6   -3.80    8.50
  -4  -6   6    5.70    8.30
  -4   8  -2    5.50    8.30
   4   8   2   -4.80    9.40
  -4   8  -2   15.00   11.40
   4   8   2  -10.10    8.40
  -4  -8  -2   -2.60    9.40
   4  -8   2   10.00   10.20
   4  -8   2   20.10    9.50
   4  -8   2    4.40   10.80
  -4  -8  -2   -4.40   11.80
   2   8   3  115.39   13.40
   2   8   3  140.39   14.90
  -2   8  -3  147.99   14.10
  -2   8  -3  125.49   12.40
   2   8   3  132.99   12.90
   2  -8   3  123.39   11.30
  -2  -8  -3  106.99   14.20
   2  -8   3  114.49   14.00
   2  -8   3  114.19   14.80
  -2  -8  -3  131.79   14.70
   0   8   4   70.99    9.10
   0   8  -4   64.39    8.90
   0   8  -4  101.59    8.50
   0   8   4   80.59   10.30
   0   8   4   73.79   10.20
   0   8  -4   79.19    6.00
   0  -8  -4   75.69   10.30
   0  -8  -4   69.09   10.10
   0  -8  -4   74.09   10.50
   0  -8   4   66.09    9.50
   0  -8   4   75.19    6.60
   0  -8   4   68.79    9.80
  -2   8   5  424.66   23.50
   2   8  -5  397.06   20.50
   2   8  -5  406.76   21.20
   2   8  -5  445.56   21.70
  -2   8   5  408.66   21.90
  -2   8   5  448.56   23.20
   2  -8  -5  420.36   22.70
   2  -8  -5  462.25   24.00
  -2  -8   5  472.25   23.30
  -2  -8   5  424.36   22.10
   4   8  -6   10.30    6.70
   4   8  -6   -9.50    8.30
  -4   8   6   -1.80    9.90
  -4   8   6   -2.50    6.60
  -4  -8   6   11.50   10.60
   4  -8  -6    2.50    8.10
   4  -8  -6    1.40   10.90
   4  -8  -6    0.80    9.70
   4  10   2  -11.20    8.80
  -4  10  -2   25.60   13.60
   4  10   2    8.40   10.80
   4  10   2   -2.00   10.90
  -4  10  -2    3.00    9.70
   4 -10   2    1.90   12.00
   4 -10   2    0.20   12.50
   4 -10   2   -5.60   13.20
  -4 -10  -2    3.90   14.20
  -4 -10  -2   15.40   12.30
  -2  10  -3   37.80    8.40
  -2  10  -3   57.79    9.40
   2  10   3   36.80    8.30
   2  10   3   48.60   11.90
   2 -10   3   30.80    9.50
   2 -10   3   38.80    9.50
  -2 -10  -3   36.70    8.80
   0  10  -4   25.60    3.80
   0  10   4   16.50    5.70
   0  10  -4   21.30    5.80
   0  10   4   24.80    6.30
   0  10  -4   16.20    6.20
   0 -10   4   28.50    4.40
   0 -10  -4   15.50   10.00
   0 -10   4   26.70    6.50
   0 -10  -4    9.60    5.90
   0 -10   4   13.90    6.70
   2  10  -5   -3.50    6.20
   2  10  -5    0.20    4.10
   2  10  -5    4.20    5.20
  -2  10   5    6.70    5.60
  -2  10   5    3.00    7.50
  -2 -10   5    2.50    5.70
  -2 -10   5    3.40    7.70
   2 -10  -5    9.70    6.70
   2 -10  -5   -4.60    7.20
   2 -10  -5   13.10    8.10
   4  10  -6   83.29   11.40
  -4  10   6  147.19   19.50
   4  10  -6  129.19   15.50
   4  10  -6  133.79   18.10
  -4 -10   6   68.19   12.40
  -4 -10   6  147.99   18.20
   4 -10  -6  105.19   14.90
   4 -10  -6   87.69   15.20
   4 -10  -6  104.89   16.50
  -4  12  -2  123.49   17.00
   4  12   2  105.89   16.30
   4  12   2  142.59   19.20
   4 -12   2  128.59   21.10
  -4 -12  -2  117.49   17.90
   4 -12   2  140.59   21.40
  -4 -12  -2  149.29   24.10
  -2  12  -3   19.10    9.40
   2  12   3   29.20    9.80
   2  12   3   40.80   11.60
  -2  12  -3   13.90    8.60
   2  12   3   22.90    8.60
  -2 -12  -3   22.00   10.00
  -2 -12  -3   36.20   11.10
   2 -12   3   31.70   11.40
   2 -12   3   29.90   11.70
   0  12  -4    1.70    6.10
   0  12  -4    7.40    6.50
   0  12   4   -1.60    6.20
   0  12  -4    1.60    3.60
   0  12   4   -3.60    7.70
   0 -12  -4   14.00    7.70
   0 -12   4   13.60    5.10
   0 -12   4    3.40    8.00
   0 -12  -4   -3.60    8.40
   0 -12  -4   -6.10    7.90
  -2  12   5    6.30    8.50
   2 -12  -5    1.00    8.80
  -2 -12   5   -1.30    8.40
   2 -12  -5    3.30   10.20
   4  12  -6   -7.20   10.20
  -4  12   6   -6.20   16.20
  -4  12   6    2.50   11.80
   4  12  -6    4.20   10.80
   4  12  -6  -31.60   13.00
   4 -12  -6   -2.30   14.00
   4 -12  -6   18.60   18.00
  -4 -12   6    5.50   17.50
  -4 -12   6    2.70   13.00
  -2  14  -3   -0.20   11.20
   2  14   3  -12.60   13.00
   2  14   3   -2.10   10.70
   2  14   3   14.30   11.00
  -2  14  -3    4.20   10.20
   2 -14   3   -8.80   12.90
  -2 -14  -3   -7.70   12.10
   2 -14   3   -3.70   13.70
  -2 -14  -3   13.60   14.80
   2 -14   3   -5.30   10.30
   0  14  -4   20.40   13.60
   0  14  -4   23.70    6.00
   0  14   4   10.90    9.40
   0  14   4   19.70   10.30
   0  14   4   24.00   12.00
   0  14  -4   32.70    9.30
   0 -14   4   30.90   11.80
   0 -14  -4   25.60   12.10
   0 -14  -4   13.30   10.10
   0 -14  -4   17.20   11.20
   0 -14   4    4.40   11.40
   0 -14   4   49.40    8.20
  -2  14   5  168.58   20.30
  -2  14   5  128.09   16.60
   2  14  -5  165.08   17.70
   2  14  -5  159.38   21.50
  -2  14   5  158.98   22.10
   2  14  -5  181.78   22.00
   2 -14  -5  127.09   19.70
   2 -14  -5  202.48   25.40
  -2 -14   5  174.78   20.20
  -2  16  -3    3.60   15.50
  -2  16  -3   -8.20   13.30
   2  16   3   11.20   14.80
   2  16   3  -37.20   17.20
   2 -16   3    2.70   12.60
   2 -16   3   -1.20   20.30
  -2 -16  -3   15.10   19.00
   2 -16   3  -41.30   21.10
   0  16  -4    6.00   11.20
   0  16   4    4.40   12.70
   0  16   4   -8.70   12.60
   0  16  -4   39.60   12.90
   0  16   4   13.90   12.80
   0  16  -4   15.80   11.60
   0 -16   4   43.90   15.80
   0 -16  -4   15.60   16.00
   0 -16  -4   -7.80   24.60
   0 -16  -4   -0.40   13.70
   0 -16   4   22.40   16.90
   5   1   2   -8.00   10.20
   5   1   2   17.90   10.60
  -5   1  -2  -14.90   13.20
  -5   1  -2    2.60    9.00
  -5  -1  -2   -4.60   13.10
   5  -1   2   -6.00   10.40
  -5  -1  -2    9.00   10.40
   5  -1   2    0.00   10.40
   3   1   3  197.88   15.30
   3   1   3  247.78   15.30
  -3   1  -3  173.68   14.80
  -3   1  -3  259.77   16.50
  -3  -1  -3  225.38   15.50
   3  -1   3  192.68   16.20
  -3  -1  -3  183.98   15.00
  -1   1  -4  704.03   29.60
   1   1   4  707.83   28.40
  -1   1  -4  721.33   29.50
   1   1   4  718.93   29.60
   1   1   4  693.33   29.60
  -1  -1  -4  695.53   29.50
   1  -1   4  689.73   29.50
  -1  -1  -4  713.43   29.60
   1  -1   4  701.03   27.40
   1  -1   4  710.53   29.50
  -1   1   5   67.89    6.30
  -1   1   5   72.39    3.70
   1   1  -5   75.59    6.00
  -1   1   5   71.89    3.80
   1  -1  -5   77.09    6.60
   1  -1  -5   68.79    3.30
   1  -1  -5   64.49    3.40
  -3   1   6    2.20    2.80
   3   1  -6    3.80    2.30
   3   1  -6    2.20    2.20
  -3   1   6    5.00    2.60
  -3  -1   6    4.20    2.40
   3  -1  -6    4.30    2.70
   3  -1  -6    2.30    2.70
   3  -1  -6    1.90    5.30
  -3  -1   6    1.30    2.90
   5   1  -7   -2.20    8.60
   5   1  -7  -11.00    7.80
  -5   1   7   10.40    7.90
   5  -1  -7    3.30   12.20
   5  -1  -7    5.80    9.80
  -5  -1   7    4.90    9.20
  -5  -1   7   -4.90    7.60
   5   3   2  110.29   14.50
   5   3   2   95.29   14.00
  -5   3  -2  113.89   14.90
   5  -3   2   93.29   14.40
  -5  -3  -2  107.99   16.70
  -5  -3  -2   88.09   14.70
   5  -3   2   99.59   15.20
  -3   3  -3  356.16   21.30
   3   3   3  319.37   20.60
  -3   3  -3  350.16   21.30
   3   3   3  340.57   19.30
   3   3   3  370.26   21.00
  -3  -3  -3  334.87   20.80
   3  -3   3  370.66   21.00
  -3  -3  -3  331.47   21.00
   3  -3   3  347.77   21.80
  -1   3  -4  522.25   23.20
   1   3   4  508.85   22.60
   1   3   4  517.85   23.40
  -1   3  -4  507.25   22.90
   1   3   4  547.75   23.60
   1  -3   4  495.15   23.00
  -1  -3  -4  509.15   22.70
   1  -3   4  534.45   23.30
  -1  -3  -4  506.95   23.30
  -1  -3  -4  515.65   23.40
   1   3  -5   15.80    2.00
  -1   3   5   15.40    3.30
   1   3  -5   23.70    3.40
  -1   3   5   17.10    2.50
   1  -3  -5   17.00    2.70
   1  -3  -5   16.80    3.50
  -1  -3   5   13.80    2.30
  -3   3   6  106.49    8.80
   3   3  -6  121.39    8.20
   3   3  -6  119.79    7.90
  -3  -3   6   96.79    7.80
  -3  -3   6  104.09   11.50
   3  -3  -6  111.39   10.60
   3  -3  -6  153.38   14.70
  -5   3   7  138.89   19.10
   5   3  -7  172.68   19.00
  -5  -3   7  149.09   21.20
   5  -3  -7  109.69   16.90
   5  -3  -7  151.58   17.50
  -5   5  -2   10.00   17.00
  -5   5  -2   -1.30   10.00
   5   5   2   13.70    9.50
   5   5   2   11.30   11.90
   5   5   2    4.50   11.40
  -5  -5  -2   -6.00   12.90
   5  -5   2   23.10   13.80
  -5  -5  -2   -5.00   11.30
   5  -5   2   31.50   13.40
  -3   5  -3  215.98   16.90
   3   5   3  198.28   14.90
   3   5   3  194.78   17.20
  -3   5  -3  207.18   17.00
   3   5   3  216.28   17.50
   3  -5   3  196.08   17.90
   3  -5   3  239.98   17.60
  -3  -5  -3  169.78   16.70
  -3  -5  -3  200.98   17.30
   1   5   4  223.48   13.80
  -1   5  -4  238.88   13.70
   1   5   4  218.78   13.80
   1   5   4  232.28   14.40
  -1   5  -4  213.38   13.20
  -1  -5  -4  238.78   14.00
   1  -5   4  230.78   14.10
  -1  -5  -4  238.68   14.00
  -1  -5  -4  227.68   14.30
   1  -5   4  234.48   14.10
   1  -5   4  229.48   10.00
   1   5  -5   81.59    7.10
  -1   5   5   85.39    7.20
  -1   5   5   90.09    7.80
   1   5  -5   92.59    7.00
  -1   5   5   87.69    9.00
   1  -5  -5   95.09    8.80
   1  -5  -5   77.69    7.30
  -1  -5   5   92.89    7.40
  -1  -5   5   88.49    7.20
   1  -5  -5   83.99    8.10
  -3   5   6   55.89    6.80
  -3   5   6   39.10    5.50
   3  -5  -6   50.09    6.50
  -3  -5   6   54.99    7.90
   3  -5  -6   65.59    7.30
  -3  -5   6   52.69    7.00
   3  -5  -6   54.69    9.30
   5   5  -7   -2.50    8.60
   5   5  -7    5.30    7.30
  -5   5   7    4.90    9.70
  -5   5   7    7.40    8.10
  -5  -5   7    3.30    7.60
   5  -5  -7   17.50   13.60
   5  -5  -7   -7.70   12.10
  -5  -5   7   29.80   11.90
   5  -5  -7    2.90    8.40
   5   7   2    4.80   10.30
   5   7   2    2.60   13.40
  -5   7  -2  -26.90   17.20
  -5   7  -2   -4.00   11.90
   5   7   2   15.40   12.40
   5  -7   2   -7.00   14.60
  -5  -7  -2   -0.30   13.50
   5  -7   2    4.00   14.10
   5  -7   2   -4.90   13.70
  -5  -7  -2   -2.10   15.40
  -3   7  -3   31.80    7.90
   3   7   3   46.70    9.70
   3   7   3   18.10    6.60
  -3   7  -3   33.50    8.60
   3   7   3   42.00    9.70
  -1   7  -4   22.10    5.30
   1   7   4   14.40    4.80
   1   7   4   18.50    4.60
   1   7   4   24.30    5.70
   1  -7   4   16.90    5.30
  -1  -7  -4   24.30    5.10
   1  -7   4   37.80    4.80
   1  -7   4   28.60    5.70
  -1   7   5  136.99   12.20
   1   7  -5  133.99    8.10
   1   7  -5  123.29    9.90
  -1   7   5  138.49   10.90
  -1   7   5  143.09   10.60
   1  -7  -5  130.59   10.90
  -1  -7   5  127.29   10.70
  -1  -7   5  132.89   10.20
   1  -7  -5  132.79   11.60
  -3   7   6   21.80    6.70
   3   7  -6   24.60    5.20
   3   7  -6   40.00    6.50
  -3  -7   6   33.70    7.80
  -3  -7   6   25.00    5.60
   3  -7  -6   20.10    7.60
   3  -7  -6   26.00    6.30
   5   7  -7   -1.50    9.80
  -5   7   7   27.00   10.10
  -5   7   7   15.70   12.20
   5   7  -7   15.10    8.80
   5  -7  -7   13.80   10.10
  -5  -7   7    6.40   14.90
  -5  -7   7   -5.70    9.20
   5  -7  -7  -13.00   14.30
   5  -7  -7   -4.50   16.50
   5   9   2   15.60   14.60
  -5   9  -2   -9.50   14.70
   5   9   2    5.10   20.30
  -5   9  -2   41.20   21.70
   5  -9   2   21.20   17.50
   5  -9   2   34.00   18.70
  -5  -9  -2  -24.80   19.90
   5  -9   2  -15.00   17.10
  -3   9  -3   64.79   10.90
  -3   9  -3   53.79    9.80
   3   9   3   54.29   10.80
   3   9   3   75.29   12.00
   3  -9   3   49.50   11.70
   3  -9   3   37.20   10.20
  -3  -9  -3   65.69   12.40
  -3  -9  -3   47.50   10.70
   1   9   4   71.09    9.20
   1   9   4   93.29   10.20
   1   9   4   95.59   12.10
  -1   9  -4   82.19   11.60
  -1   9  -4   97.29   11.60
   1  -9   4   83.99    8.00
  -1  -9  -4  103.09   13.20
  -1  -9  -4   88.69   13.00
   1  -9   4   59.29    8.90
  -1  -9  -4  104.49   13.60
  -1   9   5   43.40    6.60
   1   9  -5   47.90    6.60
   1   9  -5   47.40    6.40
   1   9  -5   44.60    6.50
  -1   9   5   59.89    8.10
  -1   9   5   51.09    8.10
   1  -9  -5   33.00    6.70
  -1  -9   5   46.10    7.00
   1  -9  -5   49.90    8.00
  -1  -9   5   42.10    6.60
   1  -9  -5   47.80    9.10
   3   9  -6   18.80    7.00
   3   9  -6   -3.00    5.30
  -3   9   6    9.30    7.60
   3   9  -6    7.30    5.70
   3  -9  -6   -0.80    6.80
  -3  -9   6    8.90    8.40
   3  -9  -6    5.10    8.90
  -3  -9   6   10.80    6.50
   3  -9  -6    9.80    9.20
   3  11   3   17.50   11.00
  -3  11  -3   10.60    8.80
  -3  11  -3    0.20    9.00
  -3 -11  -3    3.20   10.00
   3 -11   3   11.60    8.90
  -3 -11  -3   -0.60   12.30
   3 -11   3    6.50   11.30
   3 -11   3   -9.90   10.80
   1  11   4 1659.63   67.89
  -1  11  -4 1576.34   66.79
   1  11   4 1590.44   67.19
  -1  11  -4 1608.64   66.99
  -1 -11  -4 1586.84   68.29
   1 -11   4 1643.24   67.69
  -1 -11  -4 1521.65   66.79
   1 -11   4 1616.14   62.29
  -1 -11  -4 1572.04   68.29
   1  11  -5    1.30    3.60
   1  11  -5    2.90    5.60
   1  11  -5    0.60    5.30
   1 -11  -5    5.50    7.50
   1 -11  -5   -1.60    7.30
  -1 -11   5   -6.60    6.80
   1 -11  -5    6.40    6.70
  -1 -11   5   -2.10    6.80
   3  11  -6   10.90    8.90
  -3  11   6   16.80    8.30
   3  11  -6    5.90    7.30
   3  11  -6   10.20    7.30
   3 -11  -6   29.80   11.90
   3 -11  -6    1.40   10.30
  -3 -11   6    2.00    9.10
  -3 -11   6    9.10   11.60
   3 -11  -6    1.70    9.20
  -3  13  -3   48.30   13.40
   3  13   3   27.30   14.60
   3  13   3   15.20   12.20
   3  13   3    9.10   12.60
  -3  13  -3   17.00   11.30
  -3 -13  -3   33.40   17.50
   3 -13   3   24.90   11.90
   3 -13   3   20.00   15.60
   3 -13   3  -15.00   14.20
  -3 -13  -3    5.40   13.60
  -1  13  -4   28.30    5.40
   1  13   4   31.20    9.80
  -1  13  -4   34.30    9.00
   1  13   4   35.00    9.40
  -1  13  -4   20.80    8.70
   1  13   4   27.00   10.00
   1 -13   4   30.30   12.90
  -1 -13  -4   17.20   10.80
  -1 -13  -4   49.50   12.20
   1 -13   4   35.80   11.60
  -1 -13  -4   38.80   10.50
   1  13  -5    4.00    4.80
   1  13  -5   19.10    7.80
   1  13  -5   -5.70    6.60
  -1  13   5   -6.40   10.20
  -1  13   5    8.60    9.10
   1 -13  -5   15.10   10.40
  -1 -13   5    4.70    9.20
   1 -13  -5    6.80    9.90
   1 -13  -5    6.20    8.80
   3  13  -6   22.80    8.80
  -3  13   6   19.10   11.40
  -3  13   6   37.40   15.80
   3  13  -6   43.90   11.00
   3 -13  -6   11.50   15.80
   3 -13  -6   14.50   13.80
   3 -13  -6   29.60   14.70
  -3 -13   6   21.60   12.10
   1  15   4   -6.60   13.00
  -1  15  -4    0.90    6.10
   1  15   4   -3.70   11.20
  -1  15  -4   -3.90   10.20
   1  15   4    8.60   11.70
  -1  15  -4   -8.20   10.30
  -1 -15  -4    3.00   14.80
   1 -15   4    5.40    8.20
  -1 -15  -4   24.10   13.10
   1 -15   4   19.10   14.10
   1 -15   4   11.80   15.40
  -1 -15  -4   -9.40   13.30
   1  15  -5    8.50    6.60
  -1  15   5    4.80   10.70
  -1  15   5   -9.10   14.60
   1  15  -5   24.40   10.90
  -1 -15   5  -20.50   12.00
  -1 -15   5   26.70   18.30
   1 -15  -5    8.20   13.10
   1 -15  -5    7.70   12.80
   1 -15  -5   18.10   13.70
  -4   0  -3    0.10    8.20
  -4   0  -3   -2.60    6.70
   4   0   3   -2.80    8.10
   0   0   5    1.60    1.70
   0   0  -5   -0.60    1.40
   0   0   5    2.40    1.80
   0   0  -5    1.90    1.80
   0   0  -5    1.40    1.80
   0   0   5    0.90    2.00
   2   0  -6 5319.47  195.88
  -4   0   7    2.40    4.00
  -4   0   7   -5.80    4.30
   4   0  -7   -0.50    3.70
   4   0  -7   -8.00    7.90
  -4   2  -3  451.15   28.70
   4   2   3  380.86   25.60
  -4   2  -3  391.06   25.40
   4   2   3  358.66   29.90
  -4  -2  -3  373.96   25.70
   4  -2   3  398.06   28.60
   4  -2   3  409.46   27.30
  -4  -2  -3  417.66   28.00
   2   2   4  240.38   15.00
  -2   2  -4  238.88   14.80
  -2   2  -4  240.58   15.10
   2   2   4  258.07   15.30
   2   2   4  236.28   13.90
   2  -2   4  232.48   15.40
   2  -2   4  281.27   15.50
  -2  -2  -4  246.18   15.10
  -2  -2  -4  243.08   15.30
   0   2   5   -2.30    2.00
   0   2   5    0.40    2.10
   0   2  -5   -0.10    1.90
   0   2   5   -1.10    2.10
   0   2  -5    0.10    0.90
   0   2  -5    0.10    1.80
   0  -2   5    1.10    2.00
   0  -2  -5   -1.20    2.00
   0  -2  -5   -3.80    2.10
   0  -2   5   -1.30    2.00
   0  -2  -5    2.60    2.10
  -2   2   6  312.17   13.60
  -2   2   6  331.87   13.70
  -2  -2   6  338.87   12.40
   2  -2  -6  352.96   17.90
   2  -2  -6  349.96   13.40
  -2  -2   6  306.27   12.40
   2  -2  -6  345.37   13.50
   4  -2  -7    7.90    4.80
  -4  -2   7    2.60    5.40
   4  -2  -7  -10.70    8.50
  -4  -2   7    5.00    4.20
   4   4   3    5.80    6.70
   4   4   3   -8.40    7.70
  -4   4  -3    5.80    7.70
   4   4   3    7.20    8.40
  -4   4  -3   12.50    9.50
   4  -4   3   20.90   10.10
  -4  -4  -3   15.50    9.20
   4  -4   3   15.10    9.30
  -4  -4  -3   -2.20    7.90
   2   4   4  207.78   13.80
  -2   4  -4  203.58   14.30
   2   4   4  227.38   15.20
   2   4   4  191.78   14.70
   2  -4   4  239.58   15.80
  -2  -4  -4  192.18   14.10
   2  -4   4  206.48   15.30
   0   4   5   21.00    3.90
   0   4   5   20.30    3.80
   0   4  -5   17.60    3.10
   0   4  -5   20.80    3.50
   0   4   5   23.30    3.80
   0  -4  -5   20.40    3.60
   0  -4  -5   21.90    3.70
   0  -4   5   17.20    3.50
   0  -4   5   23.20    3.50
   0  -4  -5   28.80    4.20
  -4   4   7   -2.70    5.50
  -4   4   7    9.80   10.10
   4   4  -7    5.80    4.70
   4   4  -7    1.50    4.60
   4  -4  -7    3.90    9.00
  -4  -4   7    9.80    4.70
   4  -4  -7   -1.90    8.70
  -4   6  -3    9.70   10.50
   4   6   3   -8.70    9.20
  -4   6  -3   -3.00    7.70
   4   6   3    5.70    8.90
   4  -6   3   19.20   12.90
   4  -6   3   -3.90    9.70
  -4  -6  -3   -8.70   10.20
  -4  -6  -3    0.20    9.30
   4  -6   3   16.70   11.00
   2   6   4   28.80    6.30
  -2   6  -4   43.80    7.30
   2   6   4   44.60    6.70
  -2   6  -4   43.40    7.20
  -2  -6  -4   42.00    7.30
   2  -6   4   39.30    4.80
  -2  -6  -4   40.70    7.60
   2  -6   4   47.20    7.60
   0   6   5  335.87   17.70
   0   6  -5  328.97   17.20
   0   6   5  349.67   18.10
   0   6   5  340.97   17.80
   0  -6  -5  369.76   18.30
   0  -6  -5  334.07   17.80
   0  -6   5  339.97   17.50
   0  -6   5  357.16   17.80
  -2   6   6  122.89   10.80
  -2   6   6  122.59   12.80
   2   6  -6  113.99    9.30
  -2   6   6  122.69    9.70
   2   6  -6   94.59    8.20
  -2  -6   6  123.29    9.60
  -2  -6   6  152.78   11.10
   2  -6  -6  100.59   13.70
   2  -6  -6  111.39   10.20
  -4   6   7   42.10    8.80
   4   6  -7   51.89    7.40
  -4   6   7   23.70    6.70
  -4  -6   7   51.49    9.50
   4  -6  -7   36.80    7.60
  -4  -6   7   38.80    6.90
   4  -6  -7   35.50   11.10
   4  -6  -7   65.19   10.90
  -4   8  -3   46.10   13.20
   4   8   3   59.19   11.90
  -4   8  -3   26.20   10.30
   4   8   3   43.50   10.40
   4   8   3   44.50   12.30
   4  -8   3   38.10   12.70
   4  -8   3   38.90   10.60
  -4  -8  -3   28.70   14.00
   4  -8   3   36.50   12.40
  -4  -8  -3   42.30   11.50
   2   8   4  115.89   14.20
  -2   8  -4  124.29   18.20
  -2   8  -4  100.49   13.50
   2   8   4  136.99   14.70
   2  -8   4  159.68   15.40
  -2  -8  -4  134.99   15.60
   2  -8   4  155.18   11.40
   2  -8   4  116.59   15.90
   0   8   5    2.30    4.10
   0   8  -5    1.30    3.60
   0   8  -5    0.70    1.80
   0   8  -5   -3.50    3.40
   0   8   5    0.60    3.90
   0   8   5    4.10    4.30
   0  -8  -5   -3.10    4.50
   0  -8   5    8.60    4.70
   0  -8   5    3.30    4.30
   0  -8  -5    1.00    4.80
   0  -8  -5    3.60    4.50
   2   8  -6    3.10    4.50
   2   8  -6    4.70    3.70
   2   8  -6   -4.20    3.90
  -2   8   6   -1.10    5.10
  -2   8   6    6.30    5.70
  -2   8   6    0.90    4.30
  -2  -8   6    9.00    5.80
   2  -8  -6    2.90    6.20
   2  -8  -6   -2.20    6.30
  -2  -8   6    1.70    4.70
   2  -8  -6   -3.50    4.70
  -4   8   7  -10.20    6.70
   4   8  -7    0.10    6.10
  -4   8   7   -9.00    9.40
   4   8  -7    2.70    9.40
   4  -8  -7    8.70   11.90
  -4  -8   7   -5.00   10.40
   4  -8  -7   -7.00    7.80
   4  -8  -7   -8.10   10.80
  -4  10  -3   52.19   13.20
   4  10   3   89.49   16.40
  -4  10  -3   78.69   17.30
   4  10   3   67.09   13.80
   4  10   3   49.40   12.50
  -4 -10  -3   51.09   16.90
   4 -10   3   68.69   13.50
   4 -10   3   83.99   17.60
   4 -10   3   76.39   16.00
  -4 -10  -3   32.10   14.00
  -2  10  -4   12.40    6.80
  -2  10  -4    1.80    6.70
   2  10   4    8.70    9.40
   2 -10   4    4.10    8.50
  -2 -10  -4    6.70    8.10
   2 -10   4    6.00    4.90
   2 -10   4    3.50    9.80
   0  10   5   14.70    6.50
   0  10   5   13.70    5.80
   0  10  -5    6.40    5.50
   0  10   5   17.90    7.00
   0  10  -5   13.80    5.60
   0  10  -5   10.40    3.00
   0 -10   5   34.00    7.90
   0 -10  -5   28.00    7.80
   0 -10  -5   10.60    6.90
   0 -10  -5   15.40    6.70
   0 -10   5    6.00    6.60
   2  10  -6   -3.50    3.80
  -2  10   6   -0.40    5.50
   2  10  -6   -3.50    5.70
  -2  10   6   -3.10    7.20
   2  10  -6    8.00    5.40
   2 -10  -6    6.40    8.10
   2 -10  -6   -4.60    6.60
  -2 -10   6   10.50    8.30
  -2 -10   6   11.90    6.60
   4  10  -7  -12.80    7.60
  -4  10   7    2.50    8.90
  -4  10   7    1.40   12.20
   4  10  -7  -16.20   12.10
   4  10  -7   -4.70    8.50
  -4 -10   7   -2.80   14.20
   4 -10  -7  -23.70   15.40
  -4 -10   7   10.10    9.50
   4 -10  -7   10.00   11.00
   4 -10  -7    4.30   13.50
  -4  12  -3   16.90   16.20
   4  12   3   42.90   17.90
  -4  12  -3   42.80   15.30
   4 -12   3   23.00   19.90
  -4 -12  -3   41.60   16.30
   4 -12   3   43.80   16.70
  -4 -12  -3   15.90   19.20
   4 -12   3   20.90   18.30
   2  12   4   18.70   12.20
   2  12   4    4.60    8.40
  -2  12  -4    4.40    8.40
  -2  12  -4   -2.90    8.40
   2 -12   4    2.30   11.30
  -2 -12  -4   18.20   10.20
  -2 -12  -4    9.20   10.50
   2 -12   4   -7.00   10.70
   0  12   5   16.60    8.20
   0  12  -5   23.80    4.40
   0  12  -5    2.80    6.90
   0  12  -5   13.70    7.30
   0 -12  -5   30.20    9.40
   0 -12  -5   12.90    8.30
   0 -12  -5   31.50   10.00
  -2  12   6  205.88   23.40
   2  12  -6  200.68   18.80
   2  12  -6  190.08   18.40
   2  12  -6  145.09   17.90
  -2  12   6  186.78   19.40
  -2 -12   6  186.18   20.80
   2 -12  -6  196.28   21.80
   2 -12  -6  244.48   24.60
  -2 -12   6  260.87   24.60
   2  14   4   24.70   12.40
  -2  14  -4   40.40   12.90
  -2  14  -4   23.30   11.30
   2  14   4   24.30   11.80
   2  14   4   77.39   18.10
   2 -14   4   28.80    9.10
   2 -14   4   30.40   16.70
  -2 -14  -4   53.19   15.90
  -2 -14  -4   49.40   15.20
   2 -14   4   -2.90   14.60
   0  14   5   14.30    9.40
   0  14   5   21.00   11.00
   0  14  -5   33.80   16.20
   0  14  -5   36.10    9.40
   0  14   5   49.99   12.10
   0  14  -5   24.50    5.60
   0 -14   5   32.50   11.40
   0 -14  -5   43.20   12.70
   0 -14  -5   14.30   11.90
   0 -14   5   35.90   12.40
   0 -14  -5   26.20   12.30
   2  14  -6   29.80   10.90
  -2  14   6   16.20   13.50
  -2  14   6   41.00   12.20
   2  14  -6   48.70   11.60
  -2  14   6   29.90   14.00
   2  14  -6   28.60    8.60
   2 -14  -6   35.40   17.30
   2 -14  -6   27.60   13.20
   2 -14  -6   50.29   15.30
  -2 -14   6   54.09   17.30
  -2 -14   6   16.10   12.10
   0  16   5   -8.20   13.60
   0  16  -5  -24.20   11.70
   0  16  -5    2.90    6.80
   0  16   5   -1.80   14.10
   0  16   5  -15.90   14.10
   0  16  -5   -1.10   12.20
   0 -16  -5   -2.30   16.90
   0 -16   5   43.00   18.40
   0 -16   5  -11.00   19.50
   0 -16  -5    8.10   17.00
   0 -16  -5   18.10   15.70
  -5   1  -3    5.20   14.20
   5   1   3   -2.50   11.80
   5   1   3   22.60   12.90
  -5   1  -3   15.30   10.70
   5  -1   3  -10.90   11.00
   5  -1   3    6.30   11.90
  -5  -1  -3  -14.10   14.20
  -5  -1  -3   -2.00   10.30
   3   1   4  155.78   12.80
  -3   1  -4  177.98   15.90
  -3   1  -4  142.39   14.30
   3   1   4  163.58   14.90
   3   1   4  165.38   15.20
  -3  -1  -4  170.58   15.90
  -3  -1  -4  141.29   15.00
   3  -1   4  166.38   16.30
   3  -1   4  185.78   14.80
  -1   1  -5    1.50    2.90
   1   1   5   -0.30    2.10
   1   1   5    2.70    3.20
  -1   1  -5    0.30    2.70
   1   1   5    1.90    3.30
   1  -1   5    2.10    3.10
  -1  -1  -5   -3.40    2.80
  -1  -1  -5    0.60    2.80
   1  -1   5    1.30    1.70
   1  -1   5    1.00    3.10
  -1   1   6    0.80    1.10
  -1   1   6    0.40    2.40
   1   1  -6    3.80    2.30
  -1   1   6    0.90    1.30
  -1  -1   6    0.20    0.80
   1  -1  -6   -1.00    1.00
  -1  -1   6   -0.20    0.70
   1  -1  -6    1.40    0.90
   1  -1  -6    1.60    2.60
  -3   1   7   72.39    5.50
  -3   1   7   69.39    5.10
   3   1  -7   60.39    8.00
  -3  -1   7   64.79    4.00
  -3  -1   7   65.49    4.30
   3  -1  -7   66.09    8.60
  -5   1   8   24.90    7.50
  -5   1   8   11.10    6.40
   5   1  -8   16.50   14.30
   5   1  -8   16.00   11.90
   5  -1  -8    6.60    5.80
  -5  -1   8   13.50    7.20
  -5  -1   8    0.50    6.20
   5  -1  -8   42.70    9.30
   5  -1  -8    2.10   14.90
  -5   3  -3   31.80   11.30
   5   3   3   21.60   12.20
   5   3   3   21.30    9.60
   5   3   3   22.60   11.40
  -5   3  -3   13.30   15.20
  -5  -3  -3   18.10   13.50
   5  -3   3   36.20   13.10
  -5  -3  -3   45.60   12.50
   5  -3   3   52.19   15.50
   3   3   4   11.70    5.90
  -3   3  -4    1.10    5.80
   3   3   4   11.60    6.70
   3   3   4    6.00    4.90
  -3   3  -4    3.30    5.30
   3  -3   4    2.60    6.70
  -3  -3  -4   -1.20    5.70
   3  -3   4    8.60    6.60
  -3  -3  -4    5.40    5.70
   1   3   5  618.84   27.50
   1   3   5  622.74   27.50
   1   3   5  600.34   26.80
  -1   3  -5  615.24   27.00
  -1   3  -5  622.24   27.20
   1  -3   5  616.54   23.40
  -1  -3  -5  609.54   27.40
  -1  -3  -5  623.74   27.00
   1  -3   5  620.74   27.40
   1  -3   5  606.04   27.40
  -1  -3  -5  620.14   27.60
   1   3  -6   89.19    5.20
   1   3  -6   78.59    5.10
  -1   3   6   85.39    8.50
  -1   3   6   74.89    5.80
   1   3  -6   85.49    6.30
   1  -3  -6   84.19    6.20
  -1  -3   6   77.99    5.50
   1  -3  -6   84.69    8.70
  -1  -3   6   77.99    5.50
   1  -3  -6   70.89    5.90
  -3   3   7    4.10    3.30
   3   3  -7   -1.60    1.80
  -3   3   7   -0.50    2.80
   3   3  -7    3.10    1.80
   3  -3  -7   -2.30    5.90
  -3  -3   7   -2.30    3.00
   3  -3  -7    3.70    3.00
  -3  -3   7    1.50    2.30
   3  -3  -7   13.60    3.50
   5   3  -8   -2.70    5.70
   5   3  -8    9.90    7.40
   5  -3  -8    5.60    7.00
  -5  -3   8    7.00    8.50
   5  -3  -8   -7.90   11.00
   5  -3  -8   -4.40   13.20
  -5  -3   8   -3.50    6.30
   5   5   3   23.20   12.30
  -5   5  -3   12.70   16.80
   5   5   3   24.40   13.20
  -5   5  -3    5.00   11.60
   5   5   3    5.70    9.80
  -5  -5  -3   14.70   13.20
  -5  -5  -3   36.70   14.90
   5  -5   3   36.00   14.60
   5  -5   3   36.20   15.90
   3   5   4   -1.80    6.70
  -3   5  -4   -0.40    6.10
  -3   5  -4    6.90    7.10
   3   5   4  -10.60    6.80
   3   5   4    6.40    5.60
  -3  -5  -4   11.00    7.10
  -1   5  -5    4.60    3.50
   1   5   5   -3.30    3.80
   1   5   5    0.80    3.30
   1   5   5    6.30    4.50
   1  -5   5    2.30    1.00
   1  -5   5    0.40    3.60
  -1  -5  -5    1.30    3.90
   1  -5   5   -0.30    3.90
   1   5  -6   28.40    3.90
  -1   5   6   30.80    5.20
   1   5  -6   37.10    5.50
  -1   5   6   28.90    4.20
  -1   5   6   30.90    4.30
  -1  -5   6   23.80    3.80
   1  -5  -6   29.00    4.30
  -1  -5   6   25.30    4.00
   1  -5  -6   29.40    4.50
   3   5  -7    0.50    3.30
  -3   5   7    3.80    3.80
  -3   5   7    2.90    4.40
  -3  -5   7   10.10    5.10
   3  -5  -7    3.60    5.00
   3  -5  -7   -1.60    6.60
  -3  -5   7    4.90    3.50
   5   5  -8    9.20    6.80
  -5   5   8    9.90    8.30
   5   5  -8    2.70    8.30
  -5   5   8   12.20    9.70
   5  -5  -8   36.30   14.60
   5  -5  -8  -14.90   12.90
   5   7   3   -3.80   11.10
   5   7   3    7.40   13.90
   5   7   3   -2.20   13.70
  -5   7  -3   25.50   20.10
  -5   7  -3  -23.30   12.10
  -5  -7  -3   10.80   17.50
   5  -7   3  -11.80   14.20
  -5  -7  -3    8.00   14.50
   5  -7   3   -5.60   15.30
   3   7   4  114.49   15.30
  -3   7  -4  138.59   18.00
   3   7   4  140.39   14.70
   3   7   4  110.29   15.00
  -3  -7  -4  109.99   16.50
   3  -7   4  113.99   13.70
   3  -7   4  119.19   15.60
   1   7   5    2.30    4.60
   1   7   5    0.00    4.90
  -1   7  -5    4.90    4.40
  -1   7  -5    6.10    4.30
   1   7   5    3.70    5.00
  -1  -7  -5   -0.60    4.60
   1  -7   5    3.50    1.70
  -1  -7  -5    7.10    4.80
  -1  -7  -5    7.70    4.80
   1  -7   5   -5.40    4.70
   1  -7   5   -4.60    4.70
  -1   7   6   26.80    5.50
   1   7  -6    8.80    3.90
  -1   7   6   18.90    4.60
   1   7  -6    8.60    2.40
  -1   7   6   17.50    5.70
  -1  -7   6   12.00    4.30
   1  -7  -6    4.70    5.30
  -1  -7   6   16.20    4.60
   1  -7  -6   12.10    4.60
   1  -7  -6   16.90    4.80
   3   7  -7   76.89   10.90
  -3   7   7   80.29    9.00
  -3   7   7   77.39   11.10
   3   7  -7   54.69    8.20
  -3  -7   7   66.09    9.10
   3  -7  -7   85.19   10.50
   3  -7  -7   66.09   11.00
  -3  -7   7   71.99   10.80
   3  -7  -7   60.49    8.00
   3   9   4  264.77   24.00
   3   9   4  208.48   21.80
  -3   9  -4  198.58   19.70
  -3   9  -4  217.48   20.80
   3  -9   4  189.28   23.80
  -3  -9  -4  247.98   23.20
  -3  -9  -4  200.38   22.40
   3  -9   4  221.88   23.40
  -1   9  -5  417.66   23.10
  -1   9  -5  429.06   23.20
   1   9   5  336.07   25.60
   1   9   5  375.36   25.10
   1  -9   5  352.96   27.20
  -1  -9  -5  407.26   24.60
  -1  -9  -5  418.86   25.20
  -1  -9  -5  415.66   24.30
   1  -9   5  430.26   17.40
  -1   9   6   69.39    9.40
   1   9  -6   75.09   10.70
   1   9  -6   70.49    6.90
   1   9  -6   54.29    7.10
  -1   9   6   68.99    8.90
   1  -9  -6   57.29    8.20
   1  -9  -6   96.59   12.90
   1  -9  -6   58.09    9.80
  -1  -9   6   60.69    8.00
  -1  -9   6   62.49    8.10
   3   9  -7   -1.00    6.70
   3   9  -7   11.20    5.80
  -3   9   7   -4.80    7.50
   3   9  -7    2.30    5.80
   3  -9  -7    2.70    7.00
   3  -9  -7    9.10    9.70
  -3  -9   7   -4.30    5.90
   3  -9  -7   -9.40    8.30
  -3  -9   7   -4.20    8.50
   3  11   4   44.80   11.50
  -3  11  -4   52.19   11.90
  -3  11  -4   56.29   12.60
   3  11   4   82.89   15.10
  -3 -11  -4   37.30   12.50
   3 -11   4   79.29   15.90
   3 -11   4   37.50   13.60
  -3 -11  -4   55.49   14.90
   3 -11   4   46.10   10.00
  -1  11  -5   15.40    7.00
   1  11   5    9.60    9.30
  -1  11  -5   24.80    8.00
   1 -11   5   15.80    4.20
  -1 -11  -5    8.50    8.40
  -1 -11  -5    6.30    8.50
   1 -11   5    6.10    8.20
  -1 -11  -5    8.20    8.50
   1  11  -6   20.70    6.70
  -1  11   6   15.30    8.40
   1  11  -6   32.40    7.40
   1  11  -6   25.80    4.50
  -1 -11   6   29.40   13.40
   1 -11  -6   19.90    8.60
   1 -11  -6   24.80    8.90
  -1 -11   6    3.20    7.80
   1 -11  -6   25.80    9.20
  -3  11   7   15.40   10.70
   3  11  -7    0.10    7.20
  -3  11   7   -0.20    7.90
   3  11  -7   -2.30    9.30
   3 -11  -7   -2.40   11.50
   3 -11  -7    5.10    9.30
   3 -11  -7   11.70   12.80
  -3 -11   7   -3.60    8.70
  -3 -11   7   -3.30   11.60
   3  13   4   75.89   16.10
  -3  13  -4   71.09   14.50
  -3  13  -4   79.29   15.40
   3  13   4  128.39   20.00
   3  13   4   56.19   14.90
   3 -13   4   86.09   17.40
   3 -13   4   83.79   19.10
  -3 -13  -4   85.49   17.50
  -3 -13  -4   67.69   18.60
   3 -13   4   73.89   19.50
   1  13   5   -5.60    8.80
   1  13   5   -2.90    9.30
  -1  13  -5    9.20    9.00
   1  13   5   27.60   12.80
  -1  13  -5   16.30   10.20
  -1 -13  -5   -6.50    9.70
  -1 -13  -5    4.00   10.80
  -1 -13  -5    7.90   11.70
   1 -13   5   14.60   11.30
   1 -13   5    2.30   11.60
   1 -13   5    4.00    5.60
   1  13  -6   99.09   12.20
  -1  13   6   97.39   14.30
  -1  13   6   67.69   12.00
  -1  13   6   56.69   11.50
   1  13  -6   79.89   11.10
   1  13  -6   80.79   11.10
   1 -13  -6   95.39   14.40
  -1 -13   6   77.49   12.50
   1 -13  -6   62.19   12.20
   1 -13  -6   74.99   13.20
   3  13  -7   18.40    8.70
   3  13  -7   24.30   13.10
   3  13  -7   11.20    9.70
  -3  13   7   11.90   11.20
  -3  13   7   34.10   15.90
   3 -13  -7   -2.00   13.80
   3 -13  -7   35.60   18.80
  -3 -13   7   12.50   12.40
   1  15   5    2.70   11.90
  -1  15  -5    0.50   11.30
   1  15   5   -9.80   16.60
  -1  15  -5   -0.50   10.80
   1  15   5   13.10   12.10
  -1 -15  -5   -2.00   13.00
  -1 -15  -5   11.60   14.90
  -1 -15  -5  -12.60   17.20
   1 -15   5  -19.40   17.20
   1 -15   5   -2.70   14.40
   1  15  -6   19.00   11.20
   1  15  -6   11.10   11.30
  -1  15   6   15.80   11.70
   1  15  -6    9.00    6.30
  -1  15   6   -2.80   12.90
  -1  15   6   13.20   16.00
  -1 -15   6   33.70   19.70
  -1 -15   6   18.40   13.30
   1 -15  -6   15.60   13.40
   1 -15  -6    0.00   14.60
   1 -15  -6   24.40   14.90
  -4   0  -4    5.80    8.80
   4   0   4    1.00    8.80
  -4   0  -4    2.00    7.80
   4   0   4   12.50    8.80
   2   0   5    3.80    4.50
   0   0  -6  254.37   12.30
   0   0  -6  247.98   12.20
   0   0   6  247.08   12.30
   0   0   6  252.47   12.50
   0   0  -6  253.77   11.90
   0   0   6  249.38   12.00
   2   0  -7   -6.60    3.70
   4   0  -8    5.20   10.80
  -4   0   8    5.90    3.40
  -4   0   8    6.60    3.10
   4   2   4  150.08   16.00
   4   2   4  163.08   18.60
   4   2   4  158.48   19.60
  -4   2  -4  143.89   17.80
  -4   2  -4  144.09   20.90
   4  -2   4  143.69   18.30
  -4  -2  -4  163.38   18.10
  -4  -2  -4  148.59   20.70
   4  -2   4  139.59   16.40
   2   2   5   35.70    5.20
  -2   2  -5   29.10    5.90
  -2   2  -5   28.90    6.10
   2   2   5   35.60    6.10
   2   2   5   32.60    6.30
   2  -2   5   28.30    3.90
   2  -2   5   26.40    6.30
   2  -2   5   24.30    6.00
  -2  -2  -5   27.60    6.10
  -2  -2  -5   31.20    5.70
   0   2  -6 1021.50   38.00
   0   2   6 1010.30   40.80
   0   2  -6 1028.00   40.10
   0   2  -6 1017.50   40.10
   0   2   6 1017.50   40.40
   0   2   6 1054.19   40.50
   0  -2   6 1044.00   40.20
   0  -2   6 1023.40   40.30
   0  -2  -6 1007.40   40.70
   0  -2  -6 1016.30   40.30
   0  -2  -6 1041.60   40.50
  -2   2   7   21.70    2.80
  -2   2   7   17.50    2.50
   2   2  -7   32.60    5.20
  -4   2   8   28.10    4.60
  -4   2   8   31.10    5.00
  -4  -2   8   29.20    3.70
   4  -2  -8   35.80    4.00
  -4  -2   8   28.00    4.10
   4  -2  -8   15.60   10.00
  -4   4  -4    0.70    8.00
  -4   4  -4    7.30    9.80
   4   4   4   -0.90    8.30
   4   4   4    0.80    9.10
  -4  -4  -4    2.40    8.10
   4  -4   4   -5.80    9.30
   4  -4   4  -17.60   10.30
  -4  -4  -4   -1.30    8.90
   2   4   5    9.70    5.60
   2   4   5    4.20    5.30
   2   4   5    9.70    4.30
  -2   4  -5   18.00    5.40
  -2   4  -5    2.00    4.70
  -2  -4  -5    7.10    5.50
   2  -4   5    6.70    5.60
  -2  -4  -5    6.10    5.20
   2  -4   5   27.10    6.50
   0   4   6 1021.00   40.90
   0   4  -6  970.40   39.90
   0   4  -6 1018.50   40.10
   0   4   6 1076.59   40.90
   0   4   6 1002.00   41.30
   0  -4  -6  989.70   41.30
   0  -4  -6 1062.09   41.10
   0  -4  -6  948.81   40.20
   0  -4   6  984.70   40.30
   0  -4   6  992.30   40.10
   2   4  -7    6.30    1.70
   2   4  -7    5.00    2.00
  -2   4   7    4.10    2.40
   2  -4  -7    7.00    5.20
  -2  -4   7    9.00    2.40
  -2  -4   7    5.80    2.60
   2  -4  -7    8.80    3.00
   2  -4  -7   11.10    3.10
   4   4  -8    6.60    3.20
  -4   4   8    0.90    4.90
  -4   4   8    3.10    5.80
  -4  -4   8    3.20    4.10
   4  -4  -8   -8.50    6.50
   4  -4  -8   -6.20    4.80
  -4  -4   8    3.10    6.00
   4   6   4   25.20   11.60
   4   6   4   57.99   12.30
  -4   6  -4   35.40   10.50
   4   6   4   36.50    9.20
  -4   6  -4   67.39   12.50
  -4  -6  -4   24.10   11.80
  -4  -6  -4   30.20   11.20
   4  -6   4   60.89   13.00
   4  -6   4   43.70   10.20
   4  -6   4   33.50   12.30
   2   6   5   -1.90    4.90
  -2   6  -5    0.30    4.90
  -2   6  -5   -8.60    5.10
   2   6   5    6.90    5.90
   2   6   5   -3.80    6.30
  -2  -6  -5    4.10    5.90
   2  -6   5    3.50    6.00
   2  -6   5   -0.30    3.10
  -2  -6  -5   -1.90    5.70
   0   6  -6   28.70    4.20
  -2   6   7    0.70    5.40
   2   6  -7    0.70    3.30
  -2   6   7    1.60    4.00
  -2   6   7    2.40    3.50
   2  -6  -7    9.00    4.30
   2  -6  -7    3.20    5.90
   2  -6  -7   -1.70    3.90
  -2  -6   7   -0.50    3.40
  -4   6   8   -6.80    6.90
   4   6  -8   12.50    5.00
   4   6  -8    2.30    6.70
  -4   6   8   -4.50    5.70
  -4  -6   8    6.50    8.10
  -4  -6   8    5.60    5.70
   4  -6  -8    2.80    9.50
   4  -6  -8  -14.60   11.10
   4   8   4    0.50   10.50
  -4   8  -4  -15.90   12.00
  -4   8  -4    7.20    9.70
   4   8   4   -1.30    9.30
   4   8   4   -5.30   11.60
   4  -8   4   -7.80   12.20
  -4  -8  -4   -4.30   13.60
   4  -8   4   -0.80   12.40
   4  -8   4   -1.50   12.20
  -4  -8  -4    3.40   11.40
  -2   8  -5    0.60    6.00
  -2   8  -5    6.90    6.30
   2   8   5   -8.40    6.10
   2   8   5  -12.10    6.00
   2   8   5   -7.10    7.70
  -2  -8  -5   -0.60    6.90
   2  -8   5    0.90    8.00
   2  -8   5    1.60    7.10
  -2  -8  -5    3.40    7.00
   2  -8   5    2.00    3.60
   0   8   6  128.49   12.00
   0   8   6  107.09   12.80
   0   8  -6  105.89   11.20
   0   8   6  126.09   12.70
   0   8  -6  118.19   11.20
   0  -8  -6  111.39   13.60
   0  -8  -6   93.89   11.90
   0  -8   6  104.69   12.30
   0  -8   6   88.79   11.20
   0  -8  -6  106.09   13.00
   2   8  -7   90.99   10.70
  -2   8   7  108.39   15.80
   2   8  -7  109.59    9.70
   2   8  -7  122.19   11.50
  -2   8   7  117.99   13.50
   2  -8  -7   92.89   11.90
   2  -8  -7   84.29   11.20
  -2  -8   7  104.59   11.90
   2  -8  -7   97.99   12.20
  -2  -8   7  104.59   13.20
   4   8  -8   -9.90    9.20
  -4   8   8    4.10    7.40
   4   8  -8    8.00    6.90
  -4   8   8    4.90    9.50
  -4  -8   8   20.00   11.00
   4  -8  -8    3.90   12.80
   4  -8  -8    2.20    8.10
   4  -8  -8   18.60   13.60
   4  10   4   23.20   12.30
  -4  10  -4   15.50   11.90
  -4  10  -4   15.30   13.40
   4  10   4  -21.40   14.80
   4  10   4   -5.20   12.80
   4 -10   4    5.60   12.10
   4 -10   4   24.50   15.90
   4 -10   4   -5.40   15.40
  -4 -10  -4   -4.50   13.90
  -4 -10  -4   21.30   16.50
  -2  10  -5   16.70    7.90
  -2  10  -5   15.40    7.60
   2  10   5   12.60   10.90
   2 -10   5    2.80    4.50
  -2 -10  -5    3.60    9.40
  -2 -10  -5    8.50    9.10
   0  10  -6  645.04   26.00
   0  10   6  646.24   35.00
   0  10  -6  689.83   32.20
   0  10  -6  655.63   32.10
   0  10   6  721.23   32.60
   0 -10  -6  674.43   33.50
   0 -10   6  655.13   33.30
   0 -10  -6  650.23   33.80
   0 -10   6  624.54   33.00
   0 -10  -6  644.34   33.60
   2  10  -7   31.20    7.10
   2  10  -7   15.70    4.80
   2  10  -7   22.30    6.30
  -2  10   7   42.40    8.60
  -2 -10   7   29.20    7.60
   2 -10  -7   26.40    9.30
  -2 -10   7   21.70    9.40
   2 -10  -7   24.80    7.80
   2 -10  -7   18.40   10.00
  -4  10   8   10.40   12.30
  -4  10   8  -13.20    9.50
   4  10  -8    2.20   10.80
   4  10  -8   -8.10    9.00
   4  10  -8    0.60   12.60
   4 -10  -8   15.70   17.30
   4 -10  -8   -0.60   11.10
   4 -10  -8   16.30   16.80
  -4 -10   8   24.80   16.20
  -4 -10   8   -6.10    9.60
   2  12   5    3.70    9.20
   2  12   5   14.70    9.50
  -2  12  -5    2.60    8.60
   2  12   5   20.90   14.80
  -2  12  -5   19.40   10.00
   2 -12   5   13.30   11.80
  -2 -12  -5    5.20   11.00
  -2 -12  -5    0.10   10.80
   2 -12   5   12.30    5.90
   2 -12   5   13.30   12.30
   0  12  -6   17.00    7.60
   0  12  -6   14.60    7.70
   0  12   6   12.30    8.10
   0  12  -6   10.60    3.60
   0 -12  -6    9.10    9.40
   0 -12  -6    7.10    9.50
   0 -12  -6    8.90    8.90
   0 -12   6    8.90    8.60
   2  12  -7   -0.10    5.10
  -2  12   7  -11.50    8.10
  -2  12   7   13.00   10.70
   2  12  -7   17.50    7.90
   2  12  -7   13.50    8.10
  -2 -12   7  -15.50   12.10
   2 -12  -7   -2.70   11.40
   2 -12  -7   -0.90    9.80
  -2 -12   7   15.30    9.40
   2 -12  -7    8.40   10.80
  -2  14  -5    1.70   12.50
   2  14   5    3.60   12.80
  -2  14  -5   -0.40   11.60
   2  14   5  -12.10   11.50
   2  14   5  -17.30   18.90
   2 -14   5   28.40   17.80
  -2 -14  -5   15.20   15.40
  -2 -14  -5  -16.30   14.90
   2 -14   5   -4.40   16.30
   0  14   6    0.50    9.30
   0  14  -6   10.80    9.50
   0  14   6    2.80   10.40
   0  14   6    9.90   11.30
   0  14  -6    4.60    9.70
   0  14  -6    3.90    4.70
   0 -14   6   24.40   15.40
   0 -14  -6   -3.00   12.50
   0 -14   6   30.90   12.60
   0 -14  -6    5.10   11.80
   0 -14  -6   13.30   13.00
   5   1   4   -2.70   12.40
  -5   1  -4   15.80   14.10
  -5   1  -4   -0.60   11.50
   5   1   4    6.30   13.40
   5  -1   4    4.30   14.50
   5  -1   4   11.60   12.60
  -5  -1  -4    2.20   11.80
  -5  -1  -4    9.10   15.20
  -3   1  -5 1012.50   46.30
   3   1   5 1060.99   46.90
   3   1   5 1032.30   53.59
  -3   1  -5  984.90   50.59
   3   1   5 1035.70   44.20
  -3  -1  -5  974.30   50.59
   3  -1   5 1170.28   48.10
  -3  -1  -5 1092.49   47.20
   1   1   6   37.80    5.40
   1   1   6   44.30    6.20
  -1   1  -6   35.60    5.10
   1   1   6   29.80    5.10
   1  -1   6   55.39    8.10
  -1  -1  -6   34.70    5.10
   1  -1   6   47.80    6.00
   1  -1   6   49.30    5.10
  -1   1   7    1.60    1.30
   1   1  -7    0.40    2.50
  -1   1   7   -1.80    1.50
   1  -1  -7   -0.40    3.00
  -1  -1   7   -1.60    1.10
   1  -1  -7   -0.50    1.00
   1  -1  -7   -1.50    1.10
  -1  -1   7   -1.20    1.00
   3   1  -8  317.47   22.10
   3  -1  -8  359.96   22.10
  -5   1   9   43.00    6.10
   5   1  -9   17.50   18.50
  -5  -1   9   43.30    5.10
   5  -1  -9   82.99   19.20
  -5  -1   9   44.10    5.30
   5   3   4    0.60    9.50
  -5   3  -4   13.60   15.80
   5   3   4    3.00   12.50
  -5   3  -4   -2.20   11.20
   5   3   4    2.20   13.40
  -5  -3  -4    3.90   13.10
  -5  -3  -4   19.80   14.00
   5  -3   4   28.60   16.40
   5  -3   4    0.10   13.80
  -3   3  -5    9.30    6.90
   3   3   5   11.00    7.80
   3   3   5   13.20    7.40
   3   3   5    5.60    5.10
  -3   3  -5    4.10    6.40
  -3  -3  -5    4.40    6.80
   3  -3   5    5.70    7.70
  -3  -3  -5   -0.30    6.30
   3  -3   5    6.70    7.30
  -1   3  -6   30.00    5.00
   1   3   6   42.20    5.70
   1   3   6   29.90    5.70
   1   3   6   25.10    4.50
  -1  -3  -6   28.10    5.00
   1  -3   6   34.00    3.30
  -1  -3  -6   32.00    5.70
   1  -3   6   31.80    5.50
   1  -3   6   32.10    5.40
   1   3  -7   24.70    3.10
  -1   3   7   15.00    4.30
   1   3  -7   18.20    2.50
   1   3  -7   26.20    3.50
  -1   3   7   24.80    3.30
   1  -3  -7   23.80    3.40
   1  -3  -7   27.60    5.10
   1  -3  -7   21.80    3.20
  -1  -3   7   28.60    4.20
  -1  -3   7   22.70    3.00
  -3   3   8   48.30    5.90
  -3   3   8   46.50    5.50
   3   3  -8   44.50    8.00
   3  -3  -8   37.60    9.00
   3  -3  -8   44.60    4.00
   3  -3  -8   38.30    3.60
  -5   3   9   47.90    7.40
  -5   3   9   52.39    7.90
   5   3  -9   42.60   19.30
  -5  -3   9   37.50    6.00
   5  -3  -9   21.60   15.80
   5  -3  -9   37.40    5.30
   5   5   4   44.00   14.70
   5   5   4   -6.50   14.30
   5   5   4    4.20   10.90
  -5   5  -4   49.60   17.70
  -5   5  -4   38.70   13.20
   5  -5   4   15.90   16.50
  -5  -5  -4  -12.70   13.40
  -5  -5  -4   18.00   15.80
   5  -5   4   12.00   16.90
  -3   5  -5   22.80    7.90
   3   5   5   51.29    9.60
   3   5   5   33.10    8.00
  -3   5  -5   32.50    8.60
   3   5   5   22.70   10.10
   3  -5   5   42.70    9.60
  -3  -5  -5   23.40    8.10
   3  -5   5   40.80   10.20
  -3  -5  -5   31.10    8.20
   1   5   6   -5.00    4.80
  -1   5  -6    6.80    3.90
   1   5   6    2.60    3.90
   1   5   6   -0.70    4.30
  -1   5  -6    1.30    3.60
  -1  -5  -6   -1.90    4.20
  -1  -5  -6    0.10    4.60
   1  -5   6    2.50    4.50
   1  -5   6   -4.10    4.20
  -1   5   7  153.18   10.70
  -1   5   7  152.58   12.80
   1   5  -7  169.38    9.30
  -1   5   7  147.49   10.20
   1   5  -7  144.99    8.10
   1  -5  -7  133.79   10.30
  -1  -5   7  154.88    9.90
   3   5  -8    0.30    2.20
  -3   5   8    2.90    3.80
   3   5  -8   -1.90    2.10
   3  -5  -8    3.90    4.20
   3  -5  -8   -0.30    4.50
  -3  -5   8   -3.10    3.00
   3  -5  -8   -6.10    8.00
  -3  -5   8   -2.50    4.00
  -5   7  -4  103.49   17.70
  -5   7  -4   69.39   20.80
   5   7   4   97.49   20.40
   5   7   4   82.49   18.60
   5   7   4   84.09   15.50
   5  -7   4  121.89   18.40
  -5  -7  -4   77.69   18.90
   5  -7   4   68.99   20.00
  -5  -7  -4   50.59   18.80
   5  -7   4   77.19   20.00
  -3   7  -5   25.40    8.50
   3   7   5   18.50    9.70
   3   7   5   39.00   11.30
   3   7   5   24.20    9.00
  -3   7  -5    8.40   12.00
   3  -7   5   16.70    9.90
   3  -7   5   35.70    6.70
  -3  -7  -5   17.00    8.90
  -3  -7  -5   15.10    9.10
   3  -7   5    6.80    9.30
  -1   7  -6   17.10    5.50
  -1   7  -6   25.60    6.10
   1   7   6   24.40    7.20
   1   7   6   30.70    6.40
   1   7   6   18.10    6.00
  -1  -7  -6   25.90    6.90
  -1  -7  -6   30.20    6.90
  -1  -7  -6    8.60    5.40
   1  -7   6   20.10    6.60
   1  -7   6   11.50    6.00
  -1   7   7   12.40    5.90
   1   7  -7   16.50    2.40
   1   7  -7   14.10    4.20
  -1   7   7   18.00    4.70
  -1   7   7   12.80    4.80
   1   7  -7   24.00    4.90
  -1  -7   7   17.20    5.00
   1  -7  -7    6.80    6.30
   1  -7  -7   15.60    5.00
   1  -7  -7   10.40    5.20
  -1  -7   7   11.30    4.30
  -3   7   8  130.89   13.20
   3   7  -8  186.68   13.60
   3   7  -8  139.59   12.00
  -3   7   8  153.98   15.50
  -3  -7   8  168.68   13.10
   3  -7  -8  168.38   22.50
   3  -7  -8  152.88   14.20
  -3   9  -5   22.50   10.10
   3   9   5   20.30    9.50
  -3   9  -5   21.40    9.50
  -3  -9  -5   24.90   10.80
  -3  -9  -5   17.20   10.90
   3  -9   5   20.90   11.60
   1   9   6  215.28   18.90
  -1   9  -6  219.08   16.90
  -1   9  -6  222.08   17.40
  -1  -9  -6  228.98   18.80
   1  -9   6  228.98   25.00
  -1  -9  -6  177.78   17.80
  -1  -9  -6  199.58   19.20
   1   9  -7   -2.40    2.30
  -1   9   7    1.50    5.10
  -1   9   7   13.60    7.00
  -1   9   7    0.00    5.70
   1   9  -7   -2.60    4.60
   1   9  -7   -0.50    5.10
   1  -9  -7   -7.40    6.50
   1  -9  -7   -0.80    5.70
  -1  -9   7    1.30    6.60
   1  -9  -7   -0.40    6.60
  -1  -9   7   -7.30    5.10
  -3   9   8   23.50    8.80
   3   9  -8   41.90    8.40
   3   9  -8   38.80    7.10
   3   9  -8   25.70    6.70
   3  -9  -8   38.30   12.70
  -3  -9   8   27.40    7.70
   3  -9  -8   40.90    8.60
  -3  -9   8   35.20    9.80
   3  11   5   33.70   11.70
  -3  11  -5   58.19   12.80
   3  11   5   64.49   16.20
  -3  11  -5   52.59   13.50
   3 -11   5   26.00   13.50
   3 -11   5   23.30    9.50
   3 -11   5   63.89   15.90
  -3 -11  -5   35.70   12.20
  -3 -11  -5   18.50   13.40
  -1  11  -6    9.10    7.40
   1  11   6   12.20   10.90
  -1  11  -6    4.70    7.50
  -1 -11  -6   -0.10    9.00
  -1 -11  -6   10.00    8.80
  -1 -11  -6   25.90    9.50
   1 -11   6   25.20    9.70
  -1  11   7   13.10    8.70
   1 -11  -7   15.40    9.30
   1 -11  -7    8.00    8.40
   3  11  -8    3.90    7.50
  -3  11   8   -4.00    8.40
  -3  11   8   -9.90   10.70
   3  11  -8   15.00   10.70
   3  11  -8   -3.20    7.10
   3 -11  -8   12.30   13.30
  -3 -11   8   -2.90    9.00
   3 -11  -8    9.80   10.00
   3 -11  -8  -30.10   12.40
  -3 -11   8   12.40   12.20
  -3  13  -5  191.68   27.20
  -3  13  -5  230.48   31.60
   3  13   5  205.68   30.70
   3  13   5  161.58   28.60
   3 -13   5  126.09   24.40
  -3 -13  -5  139.69   20.30
  -3 -13  -5  165.68   24.30
   1  13   6   35.70   10.80
   1  13   6   20.20   10.30
   1  13   6   52.99   17.50
  -1  13  -6   25.30   12.00
  -1  13  -6   67.49   12.00
   1 -13   6   36.60   13.10
   1 -13   6   51.69   13.80
  -1 -13  -6   44.70   13.70
  -1 -13  -6   71.49   13.20
  -1 -13  -6   38.50   12.40
  -1  13   7   17.00   10.70
  -1  13   7   15.70    9.50
   1  13  -7   13.80    4.80
  -1  13   7   35.80   11.10
   1  13  -7   20.70    9.20
   1  13  -7   25.70    9.40
   1 -13  -7   12.70   10.90
   1 -13  -7   22.70   12.70
  -1 -13   7   17.70   10.70
   1 -13  -7   25.20   12.20
   1  15   6    5.20   17.70
   1  15   6  -33.60   20.00
   1  15   6  -15.90   19.30
  -1  15  -6    5.40   12.00
  -1  15  -6   11.40   13.10
   1 -15   6  -16.70   20.10
  -1 -15  -6   -4.00   16.90
   1 -15   6   26.40   26.10
  -1 -15  -6    6.50   18.40
  -1 -15  -6    7.80   16.50
   1  15  -7   -5.80   10.90
   1  15  -7   -0.90    6.00
   1  15  -7   -4.60   11.90
  -1  15   7  -18.30   14.00
  -1 -15   7  -13.60   16.10
   1 -15  -7   -7.80   15.60
   1 -15  -7   69.59   28.90
   4   0   5    3.90    6.30
  -4   0  -5   -3.60    8.00
   4   0   5   -6.80    9.30
   4   0   5  -11.70   10.00
  -4   0  -5   -2.00    8.80
  -2   0  -6  485.35   24.70
   2   0   6  461.35   24.80
  -2   0  -6  444.56   24.10
   2   0   6  483.05   24.30
   2   0   6  460.15   21.60
   0   0  -7   -2.80    2.50
   0   0   7   -1.60    2.70
   0   0  -7    3.10    2.60
   0   0   7    1.20    2.60
   0   0  -7   -1.10    2.20
   0   0   7   -0.40    2.30
   4   0  -9  -14.40   11.50
   4   2   5   64.69   11.50
   4   2   5   59.79    9.20
  -4   2  -5   63.19   12.30
  -4   2  -5   45.10   10.40
   4   2   5   50.09   11.00
   4  -2   5   39.30   11.50
  -4  -2  -5   44.20   10.80
  -4  -2  -5   56.59   11.40
   4  -2   5   64.79   13.30
   2   2   6  112.69   10.90
  -2   2  -6  103.39   11.30
   2   2   6  134.89   13.80
  -2   2  -6  122.69   12.60
   2   2   6  124.89   13.10
  -2  -2  -6  107.89   12.80
   2  -2   6  140.19   14.00
   2  -2   6  130.09    9.10
  -2  -2  -6   94.99   12.00
   2  -2   6  105.49   12.80
   0   2  -7  606.64   23.50
   0   2  -7  616.74   25.70
   0   2   7  626.74   26.30
   0   2   7  608.54   26.40
   0   2   7  626.84   26.30
   0   2  -7  584.14   25.50
   0  -2   7  604.44   25.80
   0  -2   7  588.54   25.80
   0  -2  -7  612.54   26.40
   0  -2  -7  604.24   25.90
   0  -2  -7  629.64   26.20
   4   2  -9   11.40   12.80
   4  -2  -9   -8.70   10.70
  -4   4  -5   24.10   10.70
  -4   4  -5   20.20    9.20
   4   4   5   21.80   11.00
   4   4   5   11.60   10.50
   4  -4   5   15.80   12.90
   4  -4   5   20.70   11.20
  -4  -4  -5   11.50   10.00
  -4  -4  -5   28.70   10.80
   2   4   6  512.55   26.30
  -2   4  -6  456.45   25.30
   2   4   6  464.15   24.40
  -2   4  -6  464.05   26.00
  -2  -4  -6  488.85   27.70
   2  -4   6  533.65   27.10
   2  -4   6  467.65   26.10
  -2  -4  -6  464.55   25.80
   2  -4   6  475.85   20.60
   0   4   7   30.50    5.30
   0   4   7   21.70    4.90
   0   4   7   20.40    4.70
   0   4  -7   20.40    4.00
   0  -4   7   26.00    4.20
   0  -4  -7   17.40    4.00
   0  -4   7   24.10    4.60
  -2   4   8   60.59    6.10
  -2   4   8   64.39    7.10
   2   4  -8   66.19    7.10
   2  -4  -8   51.69    8.30
   2  -4  -8   58.79    6.00
  -2  -4   8   69.89    4.50
  -2  -4   8   69.49    4.30
   2  -4  -8   86.09    7.10
  -4   4   9    3.20    4.30
  -4   4   9    5.80    4.60
   4  -4  -9    2.20    3.00
   4  -4  -9    2.00   11.00
   4   6   5   18.60    9.00
   4   6   5   38.70   13.30
   4   6   5   22.40   11.90
  -4   6  -5   21.30   12.10
  -4   6  -5   19.40   10.40
  -4  -6  -5   20.40   11.40
   4  -6   5   25.60    9.70
   4  -6   5   29.80   14.40
  -4  -6  -5   19.80   11.70
   4  -6   5   12.20   13.00
  -2   6  -6    6.60    5.60
  -2  -6  -6    4.80    6.60
   2  -6   6    7.40   10.00
   0   6  -7   24.40    4.70
   0   6   7   23.20    5.10
   0   6   7   33.40    6.60
   0   6   7   30.60    6.00
   0   6  -7   36.70    5.30
   0  -6   7   26.70    5.50
   0  -6  -7   21.70    5.30
   0  -6  -7   17.20    5.40
   0  -6  -7   31.60    6.30
   0  -6   7   23.10    5.20
   2   6  -8   10.10    3.30
  -2   6   8    9.10    4.00
  -2   6   8    5.50    4.50
  -2   6   8    1.80    6.40
   2  -6  -8    0.80    4.60
   2  -6  -8   10.10    4.80
  -2  -6   8    8.30    4.80
  -2  -6   8    8.20    3.90
   2  -6  -8   15.50    7.90
  -4   6   9   15.30    7.90
  -4   6   9   10.10    6.30
  -4  -6   9   17.00    5.10
   4  -6  -9   13.40    6.50
  -4  -6   9   15.90    6.80
   4  -6  -9   31.60   13.60
   4   8   5   -1.50   12.00
   4   8   5  -16.80   10.20
  -4   8  -5    5.20   11.40
   4   8   5   -3.60   14.10
  -4   8  -5    2.40   12.20
  -4  -8  -5  -14.50   13.50
  -4  -8  -5    5.80   13.00
   4  -8   5    0.90   14.40
   4  -8   5  -11.50   11.50
   4  -8   5   -4.20   14.40
   2   8   6   76.29   11.70
  -2   8  -6   71.09   10.30
   2   8   6   47.90    8.70
  -2   8  -6   69.89    9.70
   2  -8   6   87.79    7.80
  -2  -8  -6   56.59   10.20
   2  -8   6   68.59   10.30
  -2  -8  -6   52.89   10.20
   0   8  -7    9.50    4.70
   0   8   7   12.80    6.60
   0   8   7   33.70    7.80
   0  -8  -7    9.80    6.30
   0  -8  -7   15.70    5.90
   0  -8   7    3.50    5.60
   0  -8   7   19.50    9.80
   0  -8  -7    4.60    6.10
   2   8  -8   19.70    5.80
   2   8  -8   14.70    4.00
   2   8  -8   23.00    5.30
  -2   8   8   28.40    7.00
  -2   8   8   12.50    5.40
  -2  -8   8   24.80    7.10
   2  -8  -8   18.50    7.00
   2  -8  -8   16.50    6.30
  -2  -8   8   11.30    5.70
   2  -8  -8   21.30    9.70
  -4   8   9    5.80    9.00
   4   8  -9   -8.30    6.50
   4   8  -9   -2.50    5.80
  -4   8   9   -9.40    7.50
   4  -8  -9    1.50   12.20
  -4  -8   9    6.60   10.40
   4  -8  -9  -13.00   15.40
   4  10   5  -14.50   16.80
   4  10   5   -5.60   13.90
   4  10   5    6.70   13.40
  -4  10  -5   -1.80   13.50
  -4  10  -5    5.90   15.50
  -4 -10  -5    3.80   15.40
   4 -10   5    9.00   18.10
   4 -10   5   24.80   16.50
  -4 -10  -5  -28.70   17.10
   4 -10   5  -22.50   17.50
  -2  10  -6   20.60    9.00
   2  10   6   49.50   14.00
   2  10   6   10.10    8.70
  -2  10  -6   18.00    8.70
  -2 -10  -6    1.30    9.20
  -2 -10  -6   33.00   10.70
   2 -10   6   19.50    4.30
   0  10  -7  671.33   32.90
   0  10  -7  664.93   32.80
   0 -10  -7  654.73   34.80
   0 -10  -7  686.33   35.30
   0 -10   7  666.03   34.00
   0 -10  -7  680.93   36.30
  -2  10   8    5.20    8.30
   2  10  -8   -0.30    5.60
   2  10  -8    1.90    6.90
  -2  10   8    4.40    9.30
   2  10  -8   -1.80    4.00
   2 -10  -8   -6.50   10.40
  -2 -10   8   15.70    9.60
   2 -10  -8    0.30    7.40
   2 -10  -8    0.30    9.20
   2  12   6   20.20   11.30
   2  12   6   34.90   17.00
   2  12   6    6.80   10.20
  -2  12  -6  -14.50    9.20
  -2  12  -6   14.50   10.10
   2 -12   6   -5.50   12.60
   2 -12   6  -19.50   12.80
  -2 -12  -6  -11.50   12.30
  -2 -12  -6    2.50   11.80
   2 -12   6    3.90    4.90
   0  12   7  302.17   25.20
   0  12   7  362.46   28.50
   0  12  -7  341.17   24.20
   0  12   7  339.87   27.30
   0  12  -7  358.86   24.60
   0 -12  -7  430.86   30.10
   0 -12  -7  340.57   27.60
   0 -12   7  421.26   28.20
   0 -12  -7  369.16   28.70
   0 -12   7  337.47   27.00
   2  12  -8   -9.50    9.30
   2  12  -8    0.20    5.20
  -2  12   8   15.80    9.10
   2  12  -8    2.90    7.40
  -2  12   8   11.80   12.60
   2 -12  -8  -12.20   12.20
   2 -12  -8   12.90   10.60
  -2 -12   8    1.80    9.90
  -2 -12   8    0.50   13.40
   2 -12  -8   -0.40   12.10
  -2  14  -6    4.20   12.90
  -2  14  -6   21.10   16.90
   2  14   6   52.89   23.90
   2  14   6   18.00   22.70
   2 -14   6    9.90    7.50
  -2 -14  -6    6.80   17.70
  -2 -14  -6   17.90   20.00
   2 -14   6  -19.10   18.00
   0  14   7  -10.60   10.60
   0  14  -7   10.10    9.50
   0  14  -7    0.60   10.50
   0  14   7    8.60   15.70
   0  14   7   -1.80   12.20
   0 -14  -7   -5.10   13.50
   0 -14   7   -6.70   13.30
   0 -14  -7  -13.80   13.40
   0 -14  -7  -16.40   13.50
   5   1   5  152.88   22.10
  -5   1  -5  156.48   22.10
   5   1   5  196.78   23.10
   5   1   5  180.78   26.80
  -5   1  -5  138.89   19.30
  -5  -1  -5  161.08   21.70
  -5  -1  -5  198.48   27.80
   5  -1   5  188.28   23.00
   5  -1   5  152.88   20.20
  -3   1  -6  317.67   23.20
   3   1   6  368.86   21.20
  -3   1  -6  400.86   25.00
   3   1   6  344.37   23.70
   3   1   6  384.86   24.80
  -3  -1  -6  370.36   24.20
   3  -1   6  361.96   20.30
  -3  -1  -6  393.26   24.40
   3  -1   6  367.46   25.00
   3  -1   6  395.16   24.60
   1   1   7   31.70    4.50
  -1   1  -7   38.80    5.40
   1   1   7   43.10    6.20
   1   1   7   48.40    6.50
   1  -1   7   36.90    6.20
   1  -1   7   44.70    5.70
   1  -1   7   39.20    5.90
  -1  -1  -7   36.00    5.40
  -1   1   8    1.60    1.90
  -1   1   8   -3.00    1.60
   1   1  -8   -1.50    2.90
   1  -1  -8   -1.40    1.20
  -1  -1   8    1.20    1.40
   1  -1  -8    1.40    3.70
  -1  -1   8   -1.60    1.50
   1  -1  -8    0.10    1.30
   3   1  -9  696.63   34.70
  -5   3  -5  109.59   16.80
  -5   3  -5  153.98   22.00
   5   3   5  176.08   23.90
   5   3   5  172.38   21.80
   5   3   5  138.79   19.00
   5  -3   5  154.58   22.60
   5  -3   5  110.59   19.10
  -5  -3  -5  156.78   20.80
  -5  -3  -5  137.59   19.00
   3   3   6   50.69   10.20
  -3   3  -6   33.00    8.20
  -3   3  -6   17.90    8.40
   3   3   6   42.80    7.60
   3   3   6   34.20    9.00
   3  -3   6   30.30    8.80
   3  -3   6   28.70    5.40
  -3  -3  -6   53.59    9.60
  -3  -3  -6   16.60    8.70
   3  -3   6   27.10    9.80
   1   3   7   95.59   11.20
  -1   3  -7  104.39   10.60
   1   3   7   94.29   10.10
   1   3   7  117.39   11.40
  -1   3  -7   94.69   10.10
  -1  -3  -7  112.19   10.80
   1  -3   7  106.79   11.50
  -1  -3  -7  105.59   10.80
   1  -3   7  113.79   11.80
   1  -3   7  106.69    5.40
  -1  -3  -7  105.39   11.20
  -1   3   8    0.80    4.40
   1   3  -8   -2.90    2.30
   1   3  -8    1.90    1.80
  -1   3   8    3.30    3.40
  -1   3   8    1.00    2.40
   1   3  -8   -0.30    2.00
   1  -3  -8    3.80    2.90
  -1  -3   8   -5.70    2.40
  -1  -3   8   -1.80    2.20
   1  -3  -8    1.30    2.70
   3   3  -9    3.10    7.90
   3  -3  -9   -7.90    8.00
   5   5   5   -0.30   15.40
   5   5   5  -12.60   15.30
  -5   5  -5  -16.20   16.60
   5   5   5  -25.30   11.80
  -5   5  -5  -25.10   13.10
   5  -5   5  -19.50   16.70
  -5  -5  -5    8.30   17.00
  -5  -5  -5  -17.80   15.70
   5  -5   5  -37.00   18.70
   3   5   6   10.10    7.00
   3   5   6    5.90    7.90
  -3   5  -6    3.10    7.20
   3   5   6    7.60   11.50
  -3   5  -6    3.80    7.20
  -3  -5  -6  -10.20    9.40
   3  -5   6    6.60    8.80
   3  -5   6   11.40   13.00
  -3  -5  -6   -2.30    8.20
   1   5   7  122.49   12.50
  -1   5  -7  112.09   11.60
   1   5   7  117.09   13.30
   1   5   7  106.39   12.40
  -1   5  -7  105.39   11.20
   1  -5   7  105.79   11.70
  -1  -5  -7  110.29   12.20
  -1  -5  -7  103.29   13.00
  -1  -5  -7  112.79   12.50
   1  -5   7   94.89   12.60
   1  -5  -8    6.50    5.80
  -3   5   9   -1.70    3.60
  -3   5   9   -0.70    4.10
   3   5  -9    2.00    7.60
   3  -5  -9   37.90   10.70
   3  -5  -9    3.10    3.50
  -3   7  -6   46.60   10.20
   3   7   6   38.50   11.90
   3   7   6   46.50   10.60
  -3   7  -6   33.80   10.00
   3  -7   6   45.10   11.40
  -3  -7  -6   31.70   11.10
   3  -7   6   36.80   11.90
   3  -7   6   44.00    7.20
  -3  -7  -6   46.20   11.60
  -1   7  -7   25.10    6.40
  -1   7  -7   24.10    6.10
   1   7   7   11.60    6.20
   1   7   7   33.40    8.10
   1   7   7   21.70    7.00
   1  -7   7   20.40    6.60
  -1  -7  -7   12.00    9.30
  -1  -7  -7   18.00    7.20
  -1  -7  -7   19.20    7.00
   1  -7   7   15.90    6.60
  -1   7   8   20.20    5.70
  -1   7   8   24.00   11.50
   1   7  -8   26.20    5.60
  -1   7   8   25.20    5.60
   1   7  -8   26.80    3.00
   1   7  -8   26.80    5.00
   1   7  -8   29.20    3.40
  -1  -7   8   28.30    5.40
  -1  -7   8   26.30    5.90
   1  -7  -8   33.90    6.60
   1  -7  -8   21.60    5.50
   1  -7  -8   27.60    7.90
  -3   7   9   26.70    8.10
   3   7  -9   26.90    4.10
  -3   7   9   31.80    6.10
  -3  -7   9   32.00    5.60
   3  -7  -9   47.00    7.90
   3  -7  -9   32.90    7.00
   3  -7  -9   41.70   11.60
  -3  -7   9   28.50    6.80
  -3   9  -6   -4.60   10.20
  -3   9  -6   -1.90    9.60
   3   9   6   -2.80    9.90
   3   9   6    0.40   13.10
   3   9   6    5.40   10.30
  -3  -9  -6    3.00   11.40
   3  -9   6    4.20   11.80
   3  -9   6    0.90    6.50
  -3  -9  -6   11.80   11.70
   3  -9   6  -13.30   11.80
   1   9  -8    7.10    2.20
   1   9  -8    6.40    5.20
  -1   9   8    1.30    6.40
  -1   9   8    4.70    5.90
   1   9  -8   -5.80    5.80
   1  -9  -8    4.60    7.60
   1  -9  -8    4.50    6.60
  -1  -9   8    7.30    6.10
   1  -9  -8    8.40    7.50
  -1  -9   8    1.00    6.20
   3   9  -9    3.60    8.00
   3   9  -9    1.80    6.20
   3   9  -9   13.10    6.30
  -3   9   9   -8.90    6.50
  -3   9   9    9.80    9.10
   3  -9  -9    3.20   13.00
   3  -9  -9    0.50    7.50
  -3  -9   9    4.30    8.00
   3  -9  -9   21.70   10.70
  -3  11  -6   47.40   13.90
   3  11   6   50.09   13.80
  -3  11  -6   89.29   14.60
   3  11   6  109.59   21.70
  -3 -11  -6   56.29   15.10
   3 -11   6   62.49   19.10
   3 -11   6   60.99   16.80
  -3 -11  -6   64.79   15.90
   1  11   7    1.40    8.70
  -1  11  -7   11.60    8.60
  -1  11  -7    7.70    8.80
   1  11   7   12.10   15.30
   1 -11   7  -16.00    9.00
  -1 -11  -7    8.10   10.70
  -1 -11  -7   10.30   10.70
  -1 -11  -7    6.90    9.30
   1 -11   7    3.90    9.60
   1  11  -8  125.99   16.10
  -1  11   8   85.19   12.70
   1  11  -8  103.09    6.90
  -1  11   8  120.39   17.10
   1  11  -8  107.89   15.30
   1 -11  -8   94.59   12.90
   1 -11  -8  109.19   13.20
  -1 -11   8  129.59   17.30
  -1 -11   8   68.89   10.90
   1 -11  -8   87.19   13.60
  -3  11   9   25.20   10.10
   3  11  -9   11.10    8.70
   3  11  -9   31.10    7.70
  -3  11   9   34.30   13.00
   3  11  -9   49.40   11.90
   3 -11  -9   25.70   16.90
  -3 -11   9    3.30   13.60
  -3 -11   9   23.50   10.20
   3 -11  -9   36.70   15.40
   3 -11  -9   23.10   10.80
   1  13   7   20.30   18.90
   1  13   7    9.50   10.90
   1  13   7    4.40   11.30
  -1  13  -7   24.60   13.00
  -1  13  -7   26.90   11.00
  -1 -13  -7   28.30   13.10
   1 -13   7   39.00   14.40
  -1 -13  -7   27.00   13.90
  -1 -13  -7   31.10   13.60
   1 -13   7   21.60   13.40
  -1  13   8   11.20   10.60
   1  13  -8    1.20    9.20
   1  13  -8    1.40    3.60
  -1  13   8   -0.70   12.50
  -1  13   8   13.90   10.70
   1  13  -8   20.80    9.80
  -1 -13   8   -6.70   10.90
   1 -13  -8   -7.80   12.60
   1 -13  -8    2.30   12.90
   1 -13  -8  -10.80   13.00
   4   0   6   73.09   14.50
   4   0   6   56.29    8.90
   4   0   6   44.70   12.60
  -4   0  -6   35.30   12.00
  -4   0  -6   56.99   11.90
   2   0   7   -0.80    6.30
  -2   0  -7    5.20    5.40
   2   0   7    5.90    5.90
   2   0   7   -4.80    3.70
   4   0 -10  177.48   19.00
   4   2   6   11.10    8.10
   4   2   6   13.50   10.20
   4   2   6   12.80   11.10
  -4   2  -6   -3.00   10.30
  -4   2  -6    3.90    9.20
   4  -2   6    1.60   11.20
  -4  -2  -6    6.90   10.40
   4  -2   6    4.60   13.20
  -4  -2  -6   -4.30   10.10
   4  -2   6    1.90    6.80
  -2   2  -7  126.09   13.50
   2   2   7  149.99   12.90
  -2   2  -7  140.89   14.50
   2   2   7  133.69   14.80
   2  -2   7  151.08   15.50
   2  -2   7  155.28   10.50
  -2  -2  -7  134.29   13.80
  -2  -2  -7  117.09   14.90
   0   2   8   57.19    8.20
   0   2   8   36.80    5.40
   0   2  -8   50.99    7.30
   0   2  -8   44.00    4.70
   0   2   8   36.60    5.20
   0  -2   8   39.80    5.40
   0  -2   8   61.09    7.90
   0  -2  -8   54.19    7.50
   0  -2  -8   37.00    5.20
   2   2  -9    8.00    4.80
   2  -2  -9    3.80    6.00
   4   2 -10   15.50   14.40
   4  -2 -10  -17.70   11.70
   4   4   6   28.60   12.20
  -4   4  -6   79.19   14.10
   4   4   6   53.69   14.20
  -4   4  -6   63.99   12.50
   4  -4   6   31.60   12.90
   4  -4   6   57.19   15.90
  -4  -4  -6   56.49   13.10
  -4  -4  -6   44.10   12.50
  -2   4  -7    0.10    5.50
   2   4   7    1.60    5.40
  -2   4  -7    3.10    6.00
   2   4   7   -8.30    6.40
  -2  -4  -7    8.30    6.50
   2  -4   7   -1.30    6.80
   2  -4   7    4.20    2.80
  -2  -4  -7   -4.10    6.30
   0   4   8   55.69    6.90
   0   4   8   90.59   10.40
   0   4  -8   73.09    8.60
   0  -4   8   71.29    8.70
   0  -4  -8   86.99   10.20
   0  -4  -8   73.59    9.00
   0  -4   8   75.19    9.70
   2   4  -9    1.40    4.20
  -2   4   9   -3.90    2.40
  -2   4   9    2.40    3.20
   2  -4  -9   -3.40    2.10
   2  -4  -9   -2.50    2.40
   2  -4  -9    2.90    7.90
   4   4 -10  -11.60   14.70
   4  -4 -10  -20.30   13.40
  -4   6  -6   13.60   11.40
   4   6   6   17.10   12.30
  -4   6  -6   11.30   12.50
   4   6   6  -28.60   13.80
   4   6   6   -1.40    9.40
   4  -6   6    1.60   16.20
   4  -6   6   15.00    9.60
  -4  -6  -6  -15.10   12.10
   4  -6   6  -16.70   12.40
  -4  -6  -6   10.50   12.70
   2   6   7   46.60    9.10
  -2   6  -7   11.20    6.60
   2   6   7   20.80   11.10
  -2   6  -7   17.80    7.20
   2  -6   7   17.80    2.70
  -2  -6  -7   25.50    8.00
   2  -6   7    9.60    2.70
  -2  -6  -7    8.20    7.80
   2  -6   7   20.80    9.30
   0   6  -8    6.30    4.50
   0   6   8    7.20    4.90
   0   6   8    1.50    6.00
   0   6  -8    9.80    4.30
   0   6   8   -0.10    5.80
   0  -6   8   12.40    4.90
   0  -6  -8    8.90    5.10
   0  -6  -8    6.70    5.70
   0  -6  -8   17.10    6.30
   0  -6   8    3.90    5.30
  -2   6   9   -6.80    7.00
   2   6  -9   -0.60    4.60
  -2   6   9   -0.80    4.00
   2   6  -9   -5.70    2.40
   2  -6  -9    3.70    4.60
  -2  -6   9    0.20    3.70
   2  -6  -9    0.70    4.90
  -2  -6   9   -0.80    4.60
   2  -6  -9   -5.10    8.50
  -4   6  10   13.90    6.60
   4   6 -10   17.40   15.20
  -4   6  10   22.70    6.10
   4  -6 -10   29.10    5.80
   4  -6 -10   27.50    4.40
   4  -6 -10  -28.00   15.10
  -4   8  -6  -13.60   13.00
   4   8   6    1.30   13.90
  -4   8  -6  -19.70   12.70
   4   8   6    3.00   12.30
   4   8   6   17.90   17.20
   4  -8   6   14.90   15.80
   4  -8   6    8.30   10.90
  -4  -8  -6   -2.80   14.50
  -4  -8  -6   -3.70   14.20
   4  -8   6    2.80   16.30
  -2   8  -7  258.17   21.10
  -2   8  -7  270.47   21.40
   2   8   7  264.27   25.80
   2  -8   7  300.27   23.00
  -2  -8  -7  255.47   22.50
  -2  -8  -7  225.88   23.10
   0   8  -8    7.50    5.30
   0   8  -8   12.30    5.50
   0   8   8   19.20    8.40
   0   8   8   10.00    6.10
   0   8   8    4.90    7.10
   0  -8  -8    4.80    6.80
   0  -8  -8   11.60    8.10
   0  -8  -8    5.50    6.10
   0  -8   8    2.70    6.20
   0  -8   8    7.80    6.10
  -2   8   9    6.30    9.80
   2   8  -9   17.40    4.10
   2   8  -9   18.90    5.30
  -2   8   9    6.50    5.70
   2   8  -9   19.90    6.80
  -2   8   9    4.70    6.00
   2  -8  -9   12.00    6.60
   2  -8  -9   42.80   11.80
   2  -8  -9   21.50    7.70
   2  10   7   95.79   16.70
  -2  10  -7   93.69   13.10
  -2  10  -7   74.49   14.10
   2  10   7   51.89   12.00
   2 -10   7   86.79   15.20
   2 -10   7   52.59   12.40
  -2 -10  -7   60.79   13.00
  -2 -10  -7   44.50   12.20
   0  10  -8  216.28   18.20
   0  10  -8  222.88   17.80
   0 -10  -8  188.48   23.40
   0 -10  -8  217.68   21.10
   0 -10  -8  201.38   21.30
   0 -10   8  225.88   20.10
  -2  10   9   16.00    7.70
   2  10  -9   17.10    4.50
   2  10  -9    5.90    7.50
  -2  10   9   22.30   11.20
  -2  10   9    4.90    8.00
   2  10  -9    6.80    6.40
   2 -10  -9   24.00    8.90
  -2 -10   9   16.30   10.20
   2 -10  -9    6.80   10.30
   2 -10  -9   35.70   12.90
   2  12   7   15.70   11.50
   2  12   7   24.80   12.80
   2  12   7   56.09   20.00
  -2  12  -7    9.30   11.20
  -2  12  -7   27.30   11.60
   2 -12   7    5.10   14.80
  -2 -12  -7   28.50   14.20
   2 -12   7    8.00   15.00
  -2 -12  -7   16.00   14.00
   0  12  -8    3.00    8.50
   0  12   8   50.39   13.70
   0  12   8   12.80   10.20
   0  12  -8    4.30    8.50
   0  12   8   17.10    9.30
   0 -12  -8   12.90   12.00
   0 -12   8   18.70   11.50
   0 -12  -8    8.20   11.50
   0 -12  -8   12.80   11.30
   2  12  -9   27.10    9.20
   2  12  -9   36.50   11.20
  -2  12   9   25.80   10.50
  -2  12   9   40.70   15.20
   2  12  -9   24.60    5.50
   2 -12  -9    8.70   14.90
   2 -12  -9   45.10   12.90
  -2 -12   9   27.10   11.10
  -2 -12   9   61.79   15.00
   2 -12  -9   48.50   15.10
   0  14   8   34.60   23.20
   0  14  -8    0.50   11.00
   0  14  -8    3.70   11.90
   0  14   8    9.70   18.50
   0 -14   8   -7.50   17.60
   0 -14   8   19.40   15.60
   0 -14  -8    3.70   15.30
   0 -14  -8   15.30   16.50
   0 -14  -8   12.90   17.80
  -5   1  -6   64.59   16.30
   5   1   6   45.70   17.10
   5   1   6   31.80   18.70
  -5   1  -6   64.19   19.10
   5   1   6   36.30   11.60
   5  -1   6   33.80   10.70
  -5  -1  -6   26.50   17.30
  -5  -1  -6   42.20   16.70
   5  -1   6   61.39   22.50
   5  -1   6   37.60   18.40
  -3   1  -7   58.39   10.10
   3   1   7   53.29    7.80
  -3   1  -7   38.50    9.20
   3   1   7   44.90   10.90
  -3  -1  -7   21.70    8.80
   3  -1   7   51.59   12.00
   3  -1   7   32.50    6.80
  -3  -1  -7   53.79    9.70
   1   1   8   -1.70    4.70
   1   1   8    4.40    3.50
   1   1   8    4.00    4.50
  -1   1  -8   -2.00    4.40
  -1   1  -8    4.50    4.70
   1  -1   8    3.20    2.70
  -1  -1  -8    1.00    4.50
   1  -1   8    0.10    5.10
  -1  -1  -8    5.90    4.90
   1  -1   8    9.80    5.20
  -1   1   9  101.79    6.20
  -1   1   9   94.99    6.30
   1   1  -9  104.29    9.70
   1  -1  -9  118.29   11.30
   1  -1  -9   97.49    4.90
   1  -1  -9   91.19    4.60
  -1  -1   9  101.79    5.50
  -1  -1   9   91.09    5.30
   3   1 -10   27.40    9.30
   3  -1 -10   26.20    9.70
   5   3   6    6.30   16.60
  -5   3  -6    2.20   14.50
   5   3   6  -13.60   11.20
  -5   3  -6   30.00   18.50
   5  -3   6   -9.50   19.80
  -5  -3  -6   21.00   17.40
  -5  -3  -6   15.20   16.90
  -3   3  -7   35.70    8.70
   3   3   7   18.70    9.00
  -3   3  -7   34.50    9.50
   3   3   7   30.10   11.90
   3  -3   7   28.80   11.50
  -3  -3  -7   23.70    8.70
   3  -3   7   30.40    5.80
  -3  -3  -7   19.80    9.30
   1   3   8   66.19    8.30
  -1   3  -8   84.29   10.50
   1   3   8   70.39    8.70
  -1   3  -8   81.99   11.20
   1   3   8   76.79   10.40
  -1  -3  -8   83.09   11.20
  -1  -3  -8   64.59    8.50
   1  -3   8   66.39    8.50
   1  -3   8   64.89    8.60
   1   3  -9  665.53   27.90
   1   3  -9  680.83   26.40
  -1   3   9  684.33   28.30
  -1   3   9  686.13   28.60
   1   3  -9  708.83   26.40
  -1   3   9  665.03   31.90
  -1  -3   9  659.63   27.20
   1  -3  -9  793.12   32.00
  -1  -3   9  692.93   27.60
   1  -3  -9  763.72   28.30
   1  -3  -9  631.14   27.70
   3   3 -10    5.40    8.40
   3  -3 -10   -7.00   10.30
   3   5   7   -1.00    7.50
  -3   5  -7    4.40    8.40
   3   5   7   -0.30    9.30
   3   5   7   -1.80   10.30
  -3   5  -7   -1.80    9.50
   3  -5   7    0.70    4.70
  -3  -5  -7    0.10    9.90
  -3  -5  -7   -6.90    8.80
  -1   5  -8    3.00    5.30
   1   5   8    2.60    6.30
   1   5   8   -0.20    6.80
  -1   5  -8    5.80    5.10
   1   5   8    9.80    5.70
  -1  -5  -8   10.60    6.60
   1  -5   8    7.80    6.00
  -1  -5  -8   11.20    6.80
  -1  -5  -8    7.60    6.10
   1  -5   8   -3.40    7.00
   1   5  -9   56.79    3.70
   1   5  -9   60.99    7.60
  -1   5   9   58.39    7.00
  -1   5   9   46.80    8.00
  -1   5   9   48.80    6.10
   1   5  -9   58.79    3.80
  -1  -5   9   46.40    6.20
   1  -5  -9   84.29   10.70
   1  -5  -9   56.49    8.50
  -1  -5   9   65.09    8.70
   1  -5  -9   49.40    8.60
  -3   5  10    4.70    3.20
   3   5 -10    9.50    9.20
  -3   5  10    4.80    3.50
   3  -5 -10    1.50   12.20
  -3   7  -7   54.49   12.30
   3   7   7   27.70   10.40
   3   7   7   47.10   11.90
   3   7   7   61.29   14.40
  -3   7  -7   34.10   10.80
   3  -7   7   23.10   11.80
  -3  -7  -7   48.40   12.40
  -3  -7  -7   32.30   11.70
   3  -7   7   51.59   13.80
   3  -7   7   39.20    6.80
   1   7   8    3.50    6.60
  -1   7  -8   -2.30    5.90
  -1   7  -8   -8.20    5.20
   1   7   8    0.90    6.70
   1   7   8    4.60    7.70
  -1  -7  -8    1.80    6.30
  -1  -7  -8   -9.80    7.10
   1  -7   8    2.70    7.20
  -1  -7  -8   16.10    8.80
   1  -7   8  -10.30    6.60
   1   7  -9    1.80    4.60
  -1   7   9    2.90    6.50
   1   7  -9    6.20    5.00
  -1   7   9    8.10    7.30
  -1   7   9    4.90    4.90
  -1  -7   9   12.90    5.40
   1  -7  -9   -3.70    6.20
   1  -7  -9    2.50    7.80
   1  -7  -9    0.10    5.30
  -1  -7   9    0.70    5.20
   3  -7 -10   23.90   14.90
   3   9   7  -22.70   15.20
   3   9   7    7.80   11.90
  -3   9  -7   16.70   11.30
  -3   9  -7  -20.70   10.30
   3   9   7    3.90   11.00
   3  -9   7   -0.10   13.00
  -3  -9  -7    3.10   12.30
  -3  -9  -7   10.80   13.20
   3  -9   7    1.80    5.60
   3  -9   7   16.20   14.40
   1   9  -9  509.45   24.80
   1   9  -9  410.16   23.00
  -1   9   9  438.46   26.00
   1  -9  -9  476.25   27.70
  -1  -9   9  442.86   25.60
   1  -9  -9  418.86   25.80
  -1  -9   9  469.45   25.20
   1  -9  -9  414.56   30.20
  -3   9  10   24.30    8.00
  -3   9  10   16.20    8.70
   3   9 -10   18.70    8.00
   3   9 -10   23.00    5.40
   3   9 -10   21.70    6.90
   3  -9 -10   -2.80   10.60
  -3  -9  10   17.70    9.70
  -3  -9  10   15.10    8.00
   3  -9 -10   26.20   16.20
   3  11   7   22.10   14.90
  -3  11  -7   -1.70   13.50
   3  11   7   25.10   22.60
  -3  11  -7    0.90   16.10
  -3 -11  -7   16.70   15.80
  -3 -11  -7   -2.80   15.60
   3 -11   7    4.50    6.20
   3 -11   7   -9.70   19.50
   1  11   8  -14.80   23.60
   1  11   8   -7.50    8.70
  -1  11  -8    4.30    8.90
  -1  11  -8   23.80   10.20
   1  11   8   10.70   10.30
  -1 -11  -8   28.60   13.50
   1 -11   8   14.60   10.90
  -1 -11  -8    1.50   11.50
   1 -11   8   20.00   11.40
  -1 -11  -8    4.70   11.20
  -1  11   9   24.10   12.00
  -1  11   9   33.70    9.50
  -1  11   9   24.00   11.50
   1  11  -9   48.70    9.70
   1  11  -9   27.10    8.10
  -1 -11   9   17.10    9.90
   1 -11  -9   40.90   10.60
   1 -11  -9   30.60   13.30
   1 -11  -9   45.90   11.70
  -1 -11   9   26.60    9.90
  -1  13  -8  -18.80   11.00
   1  13   8  -15.20   21.70
   1  13   8    7.80   12.50
   1  13   8    4.70   14.00
  -1  13  -8   15.10   19.40
  -1 -13  -8   -5.30   14.70
   1 -13   8   31.50   15.70
  -1 -13  -8   27.60   15.40
   1 -13   8  -18.80   15.50
  -1 -13  -8  -34.80   14.70
   1  13  -9   13.60   11.30
   1  13  -9    2.30    9.70
  -1  13   9   -6.50   14.80
  -1  13   9    3.70   11.70
  -1  13   9   -3.70   14.70
  -1 -13   9  -20.00   12.20
   1 -13  -9   10.70   13.60
   1 -13  -9  -15.20   14.20
   1 -13  -9   -4.40   14.80
   4   0   7   13.70   12.00
   4   0   7   -5.40   14.80
  -4   0  -7  -17.20   11.00
  -4   0  -7   12.00   11.50
   4   0   7    0.90    8.00
   2   0   8 1709.53   68.99
   2   0   8 1911.71   74.19
  -2   0  -8 1786.22   73.09
   2   0   8 1756.82   73.19
  -2   0  -8 1732.03   72.69
   2   0 -10   65.89    6.70
   4   0 -11   -1.30   13.90
   4   2   7    6.30   13.30
   4   2   7   10.70   11.90
  -4   2  -7    7.50   12.10
  -4   2  -7  -19.40   10.50
  -4  -2  -7   21.60   12.30
   4  -2   7   11.80   16.10
   4  -2   7  -10.90   11.60
  -4  -2  -7  -18.70   11.00
  -2   2  -8   36.00    7.50
  -2   2  -8   28.80    7.50
   2   2   8   42.60    6.90
   2   2   8   19.70    7.70
   2  -2   8   41.60    8.80
  -2  -2  -8   23.00    7.40
  -2  -2  -8   31.90    7.70
   2  -2   8   32.70    4.90
   0   2   9   13.30    4.70
   0   2   9    0.10    4.20
   0   2   9   10.70    4.70
   0   2  -9    9.80    4.20
   0  -2   9   10.20    4.30
   0  -2  -9   14.20    4.50
   0  -2  -9   13.90    4.50
   0  -2   9    8.70    4.60
   0  -2  -9   17.60    5.20
   2   2 -10   -2.70    5.30
   2  -2 -10    6.80    8.10
   4   2 -11  133.89   17.50
   4  -2 -11  106.49   19.20
   4   4   7   11.10   13.10
   4   4   7    3.00   13.70
  -4   4  -7   19.50   12.60
   4   4   7   -1.20    9.80
  -4   4  -7    9.60   10.70
   4  -4   7    8.20   14.20
  -4  -4  -7   24.90   12.90
   4  -4   7   -0.30    7.40
  -4  -4  -7  -17.00   11.70
   4  -4   7  -11.80   16.80
  -2   4  -8    0.10    6.40
   2   4   8   13.40    6.70
  -2   4  -8    6.60    6.20
  -2  -4  -8    7.10    7.20
  -2  -4  -8   16.40    8.00
   2  -4   8    9.40    3.10
   0   4   9    8.30    5.60
   0   4   9   10.20    5.20
   0   4  -9    5.20    4.40
   0   4   9    9.90    5.30
   0   4  -9   13.30    4.50
   0  -4  -9   12.20    5.70
   0  -4   9   16.20    4.70
   0  -4  -9   13.60    6.00
   0  -4   9   19.30    5.50
   0  -4  -9    7.80    4.60
  -2   4  10   15.10    2.90
  -2   4  10    7.10    2.40
   2   4 -10   10.00    5.20
   2  -4 -10    2.80    9.90
   4   4 -11  -10.70   16.30
   4  -4 -11   11.10   17.60
  -4   6  -7   64.99   15.50
   4   6   7  138.69   21.50
  -4   6  -7   90.29   15.70
   4   6   7   68.99   16.40
   4   6   7   85.29   13.70
   4  -6   7   86.09   18.20
  -4  -6  -7   99.19   17.90
   4  -6   7  155.78   25.10
  -4  -6  -7   96.69   17.70
   2   6   8   93.19   13.00
   2   6   8   64.49   10.50
  -2   6  -8   64.99    9.90
  -2   6  -8   75.79   11.00
  -2  -6  -8   76.39   11.80
  -2  -6  -8   62.89   10.70
   0   6   9   50.69    7.90
   0   6   9   34.40    7.10
   0   6  -9   31.00    6.00
   0   6   9   46.70    8.60
   0  -6   9   41.00    7.10
   0  -6  -9   54.49    8.30
   0  -6  -9   33.00    6.90
  -2   6  10    4.80    5.50
   2   6 -10    9.20    4.50
  -2   6  10    5.00    4.40
   2  -6 -10    4.30    4.50
  -2  -6  10    4.30    3.80
   2  -6 -10   20.20   12.10
   2  -6 -10    2.20    5.50
  -2  -6  10    2.10    3.60
   4   8   7   25.30   19.80
   4   8   7   15.70   14.30
  -4  -8  -7   -2.40   16.20
   4  -8   7    5.60   10.90
  -2   8  -8   16.10    9.00
   2   8   8    1.60   10.60
   2   8   8   -5.30   15.00
  -2   8  -8   13.10    8.80
   2  -8   8   -0.90    9.70
  -2  -8  -8  -14.30    9.90
   2  -8   8   28.60   11.00
  -2  -8  -8   16.90   10.50
   0   8   9   56.79   10.90
   0   8  -9   25.60    6.70
   0   8  -9   35.10    7.30
   0  -8  -9   23.40    8.10
   0  -8  -9   31.10   10.10
   0  -8   9   22.90    8.60
   0  -8   9   35.40    8.00
   0  -8  -9   34.60    9.00
   2   8 -10   18.30    4.30
  -2   8  10    9.60    7.60
   2   8 -10   20.40    7.40
  -2   8  10   26.50   10.70
   2   8 -10    8.10    4.70
   2   8 -10   14.60    3.80
   2  -8 -10    7.70    6.90
   2  -8 -10   26.70    8.80
  -2  -8  10   12.60    8.00
   2  -8 -10   25.10   13.40
  -2  -8  10   13.90    7.40
  -2  10  -8    9.90   10.10
   2  10   8    0.40   15.00
   2  10   8   13.70   12.00
   2 -10   8    4.60   14.10
  -2 -10  -8    5.70   11.50
  -2 -10  -8   15.10   13.00
   2 -10   8    9.70   12.60
   0  10   9   33.40   10.50
   0  10  -9   45.20    9.30
   0  10   9   23.80    8.90
   0  10  -9   34.90    8.40
   0 -10   9   35.30   10.30
   0 -10  -9   42.00   11.10
   0 -10   9   46.90   10.30
   0 -10  -9   26.50   13.40
   0 -10  -9   38.60   11.10
  -2  10  10   22.20    9.00
   2  10 -10   24.30    4.30
  -2  10  10   33.00   13.20
   2  10 -10   48.80    9.80
   2  10 -10   16.00    3.90
  -2  10  10   19.70   10.20
  -2 -10  10   22.20    8.70
   2 -10 -10   17.90   11.20
   2 -10 -10    0.70    8.90
   2 -10 -10   59.59   16.30
  -2 -10  10   12.30   11.30
   2  12   8  157.68   21.30
   2  12   8  253.47   28.00
  -2  12  -8  196.18   28.00
  -2 -12  -8  249.28   32.70
   2 -12   8  229.88   33.50
   0  12  -9   48.50   11.00
   0  12   9   11.40   12.40
   0  12   9   55.39   17.60
   0  12   9   14.00   11.10
   0 -12   9    9.60   12.90
   0 -12  -9   27.30   13.20
   0 -12  -9   32.20   15.70
   0 -12  -9   15.90   13.70
  -3   1  -8   -6.70    8.40
   3   1   8    2.30    6.80
  -3   1  -8   -4.90    8.50
   3   1   8   -8.90   14.60
  -3  -1  -8    8.80    9.50
   3  -1   8   -1.60    6.00
  -3  -1  -8  -14.10    8.40
   3  -1   8    8.50   13.10
  -1   1  -9  202.08   15.80
   1   1   9  234.98   16.90
   1   1   9  217.88   14.20
  -1   1  -9  206.98   20.60
   1  -1   9  230.38   17.60
  -1  -1  -9  224.08   18.90
   1  -1   9  224.48   12.30
  -1  -1  -9  228.68   16.30
  -1   1  10   76.49    6.10
   1   1 -10   90.69    9.90
  -1   1  10   87.89    6.10
  -1  -1  10   74.69    5.00
   3   1 -11  -18.70   10.90
   3  -1 -11   13.90   11.80
  -3   3  -8  107.19   13.30
   3   3   8  146.89   17.80
  -3   3  -8   83.89   12.20
   3  -3   8   55.89   24.80
   3  -3   8  103.99   13.20
  -3  -3  -8   93.99   13.60
  -3  -3  -8   84.89   15.20
  -1   3  -9  146.19   14.40
   1   3   9  164.98   15.80
   1   3   9  134.69   15.30
  -1   3  -9  111.29   12.80
   1   3   9  143.59   13.50
  -1  -3  -9  140.79   14.20
   1  -3   9  155.48   15.90
  -1  -3  -9  156.38   14.50
   1  -3   9  126.79   14.90
  -1  -3  -9  123.39   15.50
  -1   3  10   19.30    4.40
  -1   3  10   22.90    4.10
   1   3 -10   25.00    3.60
  -1   3  10   25.50    6.60
   1  -3 -10   24.10    3.70
  -1  -3  10   21.90    3.40
  -1  -3  10   24.40    3.70
   1  -3 -10   38.90    7.20
   3   3 -11   16.50    9.20
   3  -3 -11   -4.20   13.00
   3   5   8   -8.90    9.80
  -3   5  -8   18.30    9.80
  -3   5  -8    3.50   11.90
   3   5   8    2.60   13.30
  -3  -5  -8    4.30   10.50
   3  -5   8   13.50    5.50
   3  -5   8   19.80   15.40
   3  -5   8   21.50   11.60
  -3  -5  -8   10.00   11.10
  -1   5  -9   56.19    8.70
  -1   5  -9   64.59    8.70
   1   5   9   43.90    7.90
   1   5   9   58.89    9.70
   1   5   9   73.29   10.30
   1  -5   9  102.19   14.10
  -1  -5  -9   50.69    9.10
  -1  -5  -9   57.29    9.70
   1  -5   9   63.39    9.60
  -1  -5  -9   77.19   10.60
  -1   5  10   44.50    6.10
   1   5 -10   32.70    4.50
  -1   5  10   26.30    7.50
  -1  -5  10   38.70    5.60
   1  -5 -10   47.10    6.80
   1  -5 -10   30.20    9.20
  -1  -5  10   61.09    8.60
   1  -5 -10   47.90    6.30
   3   5 -11   16.60    8.30
   3  -5 -11   -6.50   15.80
  -3   7  -8    7.50   11.00
  -3   7  -8   -6.10   10.90
   3   7   8    1.00   14.90
   3   7   8    4.30   11.40
   3   7   8   -2.50   10.00
   3  -7   8   -0.60    5.30
  -3  -7  -8   19.80   12.50
   3  -7   8   22.60   13.50
   3  -7   8    3.00    5.10
  -3  -7  -8  -18.50   11.50
   3  -7   8  -12.30   13.00
  -1   7  -9   31.90    7.80
  -1   7  -9   62.19    9.10
   1   7   9   35.90    9.00
  -1  -7  -9   32.10   10.50
  -1  -7  -9   44.80    9.90
   1  -7   9   33.00    9.10
  -1  -7  -9   33.60    8.90
  -1   7  10   -8.30    7.10
  -1   7  10    7.90    5.80
   1   7 -10    8.10    5.30
   1  -7 -10    3.00    6.10
   1  -7 -10    7.90    7.60
   1  -7 -10  -11.30    9.00
  -1  -7  10   10.20    7.50
  -1  -7  10    1.40    9.40
  -3   7  11    2.10    6.20
  -3   7  11   -2.80    5.40
   3  -7 -11   14.50   17.20
   3  -7 -11   -3.60    3.80
   3  -7 -11    6.00    6.00
   3   9   8   17.50   14.70
  -3   9  -8  -23.70   11.80
  -3   9  -8   -4.60   11.90
   3   9   8   -1.10   13.40
   3   9   8    6.20   16.60
   3  -9   8    4.40   16.20
   3  -9   8   -6.90   15.80
  -3  -9  -8   20.00   15.10
  -3  -9  -8   -8.70   14.30
   1   9   9   12.90    9.70
  -1   9  -9   15.00    8.20
  -1   9  -9   36.70    9.70
   1   9   9   17.20    9.80
  -1  -9  -9    9.20   10.60
   1  -9   9   35.60   11.00
  -1  -9  -9   43.30   12.90
  -1  -9  -9   25.40   10.80
  -1   9  10   15.80   10.30
   1   9 -10    4.50    7.30
  -1   9  10    7.20    7.10
  -1   9  10   10.50   10.00
   1   9 -10    4.40    6.40
   1  -9 -10   17.90   11.80
   1  -9 -10    9.50    8.10
   1  -9 -10   17.70    9.90
  -1  -9  10    9.70    7.40
  -1  11  -9   -3.50   10.40
   1  11   9   -5.20   10.80
   1  11   9   31.40   23.50
  -1  11  -9   13.10   10.50
   1  11   9    0.80   12.20
  -1 -11  -9    7.90   13.00
  -1 -11  -9   24.20   15.20
  -1 -11  -9    3.00   13.20
   1 -11   9    1.80   12.60
   1 -11   9   -0.20   12.40
  -1  11  10  455.25   30.70
  -1  11  10  497.95   34.30
   1  11 -10  537.35   29.80
  -1  11  10  434.86   35.60
   1  11 -10  469.25   27.70
   1 -11 -10  485.25   39.30
   1 -11 -10  521.85   35.60
  -1 -11  10  426.86   30.00
   1 -11 -10  489.05   32.10
  -1 -11  10  464.65   30.50
   4   0   8  141.09   21.90
   4   0   8   68.09   15.60
  -4   0  -8  114.59   16.50
  -4   0  -8   93.79   17.30
   4   0   8  103.59   13.00
   0   0  10    3.80    4.30
   0   0 -10    2.90    6.90
   0   0  10    7.70    4.80
   0   0  10   -4.50    5.00
   0   0 -10    4.00    4.40
   0   0 -10    5.10    4.20
   2   0 -11    1.40    8.00
   4   2   8  141.19   18.60
   4   2   8  227.28   33.70
  -4   2  -8  180.08   26.50
  -4   2  -8  129.29   17.60
  -4  -2  -8  123.09   19.00
   4  -2   8  215.88   29.40
  -4  -2  -8  185.58   27.40
   2   2   9  114.09   13.80
   2   2   9  147.19   15.10
  -2   2  -9  164.38   17.20
  -2   2  -9  140.89   17.40
  -2  -2  -9  156.48   18.00
  -2  -2  -9  180.08   18.90
   2  -2   9  143.49   11.30
   0   2 -10   54.09    9.60
   0   2 -10   75.89   10.00
   0   2  10   49.70    6.80
   0   2  10   49.20    7.00
   0   2  10   45.00    6.70
   0  -2 -10   78.89   10.30
   0  -2  10   41.40    6.40
   0  -2 -10   54.09    7.00
   0  -2  10   56.69    7.30
   4   4   8   60.09   13.50
   4   4   8   81.79   18.60
  -4   4  -8   51.29   14.50
  -4   4  -8   74.59   16.90
   4   4   8   79.09   18.30
   4  -4   8   52.39   17.10
  -4  -4  -8   35.70   16.90
   4  -4   8   46.80   10.00
   4  -4   8  117.99   25.40
  -4  -4  -8   50.29   16.90
  -2   4  -9   -3.90    8.20
   2   4   9   13.90    8.40
   2   4   9   -5.80    7.10
  -2   4  -9    8.50    7.40
   2  -4   9   -3.60    8.40
   2  -4   9    0.00    2.50
  -2  -4  -9    1.90    8.10
  -2  -4  -9    6.90    9.10
   0   4 -10   15.00    5.20
   0   4 -10    4.60    4.90
   0   4  10    5.00    5.80
   0   4  10    6.10    6.60
   0  -4  10    7.20    5.20
   0  -4 -10    7.80    7.60
   0  -4 -10   12.80    5.40
   0  -4  10    6.40    6.60
   0  -4 -10    8.50    6.20
   2   4 -11    0.60    5.40
   2  -4 -11    1.10   12.00
  -2   6  -9    0.70    8.50
  -2   6  -9    1.90    8.40
   2   6   9    1.20    9.30
   2   6   9    1.20    8.50
   2   6   9   -6.30   10.50
   2  -6   9   -3.60    9.80
  -2  -6  -9    3.60   11.30
  -2  -6  -9  -18.50    9.30
   0   6  10    9.50    6.80
   0   6 -10    8.30    5.70
   0   6  10    1.20    7.50
   0   6  10   -1.10    7.50
   0   6 -10    7.20    5.70
   0  -6 -10   11.20    6.60
   0  -6 -10   11.40    7.60
   0  -6  10    5.40    6.20
   0  -6  10    4.50    6.70
   0  -6 -10   17.30   10.00
  -2   6  11    2.20    7.10
  -2   6  11   -0.10    5.20
   2   6 -11    1.70    4.20
   2  -6 -11    5.10    4.10
   2  -6 -11  -13.80   13.30
   2  -6 -11   13.50    5.00
   2   8   9    3.70   23.90
  -2   8  -9   15.50   10.60
   2   8   9   20.50   10.80
  -2   8  -9   20.90   10.70
   2   8   9   26.60   12.00
  -2  -8  -9   11.80   11.50
   2  -8   9   10.80   11.80
  -2  -8  -9   29.10   12.50
   2  -8   9   32.90   12.20
   0   8  10   13.10    7.90
   0   8 -10   15.90    7.10
   0   8  10    6.80    9.50
   0   8 -10   11.80    7.40
   0  -8 -10   29.20   10.30
   0  -8  10    7.90    7.70
   0  -8 -10   11.90    8.50
   0  -8 -10   14.90   11.50
   2   8 -11   12.30    3.10
  -2   8  11    9.70   12.40
  -2   8  11   11.20   11.70
   2   8 -11   10.40    4.00
   2   8 -11   16.50    4.50
   2   8 -11    5.90    3.00
   2  -8 -11    8.10    7.70
  -2  -8  11   13.70    8.10
  -2  -8  11    0.80    9.20
   2  -8 -11   26.00    9.40
   2  -8 -11   11.00   14.50
  -2  10  -9   22.10   15.60
  -2  10  -9  -11.20   12.50
   2  10   9   33.70   20.30
   2  10   9   17.30   13.10
   2 -10   9   19.60   15.90
   2 -10   9   35.80   15.90
  -2 -10  -9   22.70   14.60
  -2 -10  -9   15.20   13.70
   0  10  10   10.10    9.70
   0  10 -10   13.60    8.40
   0 -10 -10    4.20   12.20
  -2  10  11   24.80   14.60
   2  10 -11   47.70   11.00
  -2  10  11   18.00    9.70
   2 -10 -11   30.70   13.90
  -2 -10  11   26.50   10.10
   2 -10 -11    8.70   17.60
   0 -12 -10   -1.20   18.20
  -3   1  -9   30.40   11.00
   3   1   9   38.70    9.10
  -3   1  -9   29.20   11.60
   3   1   9   30.30   12.00
   3   1   9   63.79   16.70
  -3  -1  -9   33.40   11.30
   3  -1   9   38.80    8.10
  -3  -1  -9   27.50   13.70
   3  -1   9   37.00   16.80
   3  -1   9   30.60   12.20
  -1   1 -10  215.58   17.10
   1   1  10  200.18   18.10
   1   1  10  195.38   14.50
  -1   1 -10  175.08   16.40
   1   1  10  201.08   18.50
   1  -1  10  190.38   18.00
  -1  -1 -10  193.58   16.90
  -1  -1 -10  203.78   18.10
   1  -1  10  192.28   12.20
   1  -1  10  196.98   17.70
  -1   1  11    4.50    2.60
   1   1 -11    9.10    4.70
  -1   1  11   -0.40    2.50
   3   1 -12   12.10   12.60
   3  -1 -12  -20.50   13.80
   3   3   9   18.30   12.40
   3   3   9   25.30    9.90
  -3   3  -9   15.30   10.80
   3   3   9   40.60   13.70
   3  -3   9   22.50   12.10
  -3  -3  -9   41.00   13.00
   3  -3   9   29.40    6.90
   3  -3   9   36.10   16.30
  -3  -3  -9   26.50   12.00
   1   3  10    6.60    7.10
  -1   3 -10    9.70    6.30
   1   3  10   28.20    6.90
  -1   3 -10   27.50    7.60
  -1  -3 -10   17.40    7.30
  -1  -3 -10   21.60    7.40
  -1  -3 -10   14.10    7.30
   1  -3  10    8.20    8.00
   1  -3  10   14.10    8.30
  -1   3  11   25.90    7.30
  -1   3  11   30.90    4.70
  -1   3  11   23.00    4.80
  -1  -3  11   44.90    6.50
   1  -3 -11   17.00    4.40
   1  -3 -11   32.80    8.70
   3   3 -12    2.10   10.70
   3  -3 -12    8.20   16.90
   3   5   9   -2.60   14.30
   3   5   9    3.70   11.00
  -3   5  -9   13.20   11.60
  -3   5  -9  -11.80   10.70
   3   5   9  -10.70   12.50
  -3  -5  -9   -9.40   11.70
   3  -5   9   -2.40    5.20
  -3  -5  -9    3.20   12.30
   3  -5   9  -17.80   12.00
   3  -5   9   13.60    6.10
   3  -5   9  -21.20   17.00
  -1   5 -10    2.30    6.90
   1   5  10    1.40    8.40
   1   5  10    0.80    8.40
  -1   5 -10   13.60    6.60
   1   5  10   -5.20    9.70
  -1  -5 -10   -0.80    7.40
  -1  -5 -10   -6.90    7.80
   1  -5  10    7.00    7.80
  -1  -5 -10    9.40    9.30
  -1   5  11   -7.60    7.90
  -1   5  11    5.40    5.90
  -1  -5  11    3.10    4.30
   1  -5 -11   -2.20    9.70
  -1  -5  11    9.70    5.30
   1  -5 -11   -1.50    4.90
   1  -5 -11   16.80    9.60
   3   5 -12   23.50    9.80
   3  -5 -12    9.00   20.20
  -3   7  -9   16.90   12.70
   3   7   9   -6.60   12.80
   3   7   9   31.40   17.80
  -3   7  -9   -3.00   13.10
   3   7   9   -2.20   14.40
  -3  -7  -9    4.20   14.90
   3  -7   9   16.00   15.20
   3  -7   9   -9.10   15.20
  -3  -7  -9   10.30   13.60
  -1   7 -10  143.79   18.60
  -1   7 -10  126.49   17.20
   1  -7  10   87.29   12.90
   1  -7  10   93.29   12.40
  -1  -7 -10  144.79   16.30
  -1  -7 -10  110.39   14.10
  -1  -7 -10  128.69   18.90
   1   7 -11    2.90    6.00
  -1   7  11    1.30   10.00
  -1   7  11   -0.60    7.30
   1   7 -11   -7.80    5.50
   1  -7 -11    5.40    8.20
  -1  -7  11   -5.40    6.70
   1  -7 -11  -11.30    6.50
  -1  -7  11    5.60    7.30
   1  -7 -11  -11.90   11.90
   1   9  10   94.29   13.90
  -1   9 -10   79.79   11.90
   1   9  10   87.99   17.20
  -1   9 -10   82.29   12.80
   1   9  10   94.39   14.20
  -1  -9 -10   81.19   14.10
  -1  -9 -10   97.59   17.80
   1  -9  10   82.09   14.00
  -1  -9 -10  105.19   15.40
   1  -9  10   98.99   14.30
  -1   9  11   50.59   12.90
  -1   9  11   53.59   12.50
  -1   9  11   36.70    9.70
   1   9 -11   51.59    9.00
   1  -9 -11   42.70   10.20
  -1  -9  11   31.20    9.20
   1  -9 -11   50.09   17.20
  -1  -9  11   52.89    9.90
   1  -9 -11   66.19   13.00
   1  11  10   43.00   19.50
  -1  11 -10   -3.30   11.10
   1  11  10   37.40   16.10
  -1  11 -10  -21.60   11.50
  -1 -11 -10   20.50   16.40
  -1 -11 -10  -10.30   15.30
  -1 -11 -10  -28.40   19.00
   1 -11  10    5.20   14.80
   1 -11  10  -22.70   15.00
  -4   0  -9   -4.70   15.20
   4   0   9  -10.10   10.70
   2   0  10   17.60    9.40
  -2   0 -10    4.10    8.70
   2   0  10    2.70    5.70
  -2   0 -10    1.40    8.50
   0   0 -11   -3.00    6.30
   0   0 -11    3.20    5.00
   0   0 -11    9.60    6.00
   0   0  11    2.10    5.60
   2   0 -12   -8.30    9.70
  -2   2 -10   69.59   11.30
  -2   2 -10   87.99   11.90
   2   2  10  130.09   16.50
   2   2  10   81.49   12.50
   2  -2  10   99.19   10.20
  -2  -2 -10   79.99   12.90
   2  -2  10   91.19   12.50
   0   2  11    5.10    6.20
   0   2  11   12.10    6.40
   0   2 -11    6.50    7.10
   0   2  11   16.10    6.50
   0  -2 -11    3.10    5.90
   0  -2 -11  -15.80    7.30
   0  -2  11   -1.90    5.40
   0  -2  11    8.70    7.30
   0  -2 -11    9.10    6.40
   2   2 -12  161.58   12.30
   2  -2 -12  133.29   16.40
   2   4  10   12.30    8.80
  -2   4 -10    7.70    8.60
  -2   4 -10    0.80    9.50
   2   4  10   10.30   10.30
  -2  -4 -10   31.00   10.50
   2  -4  10   -4.60   10.40
   0   4 -11    1.90    5.70
   0   4 -11    6.00    7.40
   0   4  11    5.00    7.50
   0   4  11    0.90    6.90
   0  -4 -11   17.60    9.80
   0  -4 -11   10.80    6.40
   0  -4  11    5.40    6.70
   0  -4  11   17.50    6.30
   0  -4 -11   -0.80    6.90
   2   4 -12  140.99   15.30
   2  -4 -12  218.38   28.50
  -2   6 -10   18.10    9.70
   2   6  10   17.00   13.30
  -2   6 -10   -8.00   10.20
   2   6  10   22.70   12.10
   2  -6  10    2.30   10.90
  -2  -6 -10    7.30   11.60
  -2  -6 -10   -1.80   11.30
   2  -6  10   18.20   12.30
   0   6  11   16.30    8.60
   0   6 -11   -0.40    6.40
   0   6  11   -0.20    7.00
   0   6  11    9.50    9.10
   0   6 -11    8.40    6.40
   0  -6 -11  -20.60   11.60
   0  -6  11   -8.80    6.70
   0  -6 -11   12.00    7.70
   0  -6 -11    2.40    8.90
   2   6 -12   -7.10    3.00
  -2   6  12    0.90    4.90
   2   6 -12   -2.40    3.40
   2  -6 -12   15.40   14.50
  -2   8 -10    3.60   11.20
   2   8  10   10.80   12.40
   2   8  10    9.10   14.10
   2   8  10   33.10   16.50
  -2   8 -10   -0.10   11.70
  -2  -8 -10  -17.40   12.90
   2  -8  10  -11.10   13.40
   2  -8  10   12.60   14.00
   0   8  11    1.40    8.40
   0   8  11   12.00   10.60
   0   8 -11    7.00    8.30
   0   8  11    9.60   11.40
   0   8 -11    9.50    7.80
   0  -8 -11   -2.90    9.10
   0  -8 -11   10.70   11.20
   0  -8  11    8.00    9.90
   0  -8  11   -0.20    8.90
   0  -8 -11   18.80   15.60
   2  -8 -12   52.59   18.30
   0 -10 -11   26.20   19.60
   3   1  10   10.60   12.10
   3   1  10   23.60   12.80
   3   1  10   -9.70   16.30
  -3   1 -10  -19.40   11.30
  -3   1 -10   -2.80   13.40
  -3  -1 -10    0.30   12.10
   3  -1  10   -3.50    7.90
   3  -1  10    5.50   12.80
  -3  -1 -10    6.90   12.80
   3  -1  10   -3.90   18.00
  -1   1 -11  457.05   26.30
   1   1  11  465.75   27.80
  -1   1 -11  492.55   27.40
   1   1  11  418.46   24.00
  -1  -1 -11  448.46   26.60
   1  -1  11  480.35   28.00
  -1  -1 -11  528.55   28.80
   1  -1  11  445.46   21.50
   3   3  10    6.20   12.90
  -3   3 -10   16.90   12.30
   3   3  10   -8.40   14.80
   3   3  10   12.90   14.10
  -3   3 -10   10.30   12.20
   3  -3  10   -4.90   12.70
   3  -3  10    0.50   19.40
   3  -3  10    2.40    6.90
  -3  -3 -10  -12.60   13.10
   1   3  11   -8.00    8.10
  -1   3 -11    0.70    7.10
   1   3  11   16.80    7.70
   1   3  11   13.50    8.60
  -1   3 -11    7.20    8.00
   1  -3  11   -3.20    8.40
  -1  -3 -11   -1.80    8.30
   1  -3  11  -11.70    8.10
  -1  -3 -11   15.80    8.40
   1   3 -12   -0.50    3.10
  -1   3  12    7.00    4.30
  -1   3  12    0.70    4.00
   1  -3 -12    2.80    2.30
   3   5  10    7.10   13.10
  -3   5 -10    2.10   12.50
   3   5  10  -39.70   15.80
  -3   5 -10   10.70   13.80
  -3  -5 -10   -5.80   14.20
   3  -5  10    7.60   21.20
  -3  -5 -10   24.30   17.30
  -1   5 -11   21.10    9.20
  -1   5 -11   19.00    7.90
   1   5  11    8.60   10.40
   1   5  11   23.10   10.10
   1   5  11   14.40    9.30
  -1  -5 -11   14.20   10.90
  -1  -5 -11   34.80   11.50
   1  -5  11   12.70    9.30
  -1  -5 -11   45.80   10.30
   1  -5  11   20.40    9.90
  -1   5  12   -3.10    5.60
  -1   5  12   -6.10    6.20
   1  -5 -12    1.40    6.50
   1  -5 -12    0.90    5.40
  -1  -5  12   -0.10    5.40
   1  -5 -12   -1.20   11.70
  -1  -5  12    0.20    4.40
  -1   7 -11   10.00    9.50
  -1   7 -11   18.00   10.60
   1  -7  11   24.10   11.30
  -1  -7 -11   11.20   12.20
  -1  -7 -11   47.60   15.30
  -1  -7 -11   16.80   10.90
   1  -7  11   21.30   11.70
  -1   7  12    0.00    8.30
   1   7 -12    9.00    6.50
   1   7 -12   11.70    5.80
  -1   7  12    2.90    7.50
  -1   7  12   13.80   12.30
  -1  -7  12   -3.40    6.40
   1  -7 -12   26.10   15.50
  -1  -7  12   10.60    7.80
   1  -7 -12    7.00    8.80
   1  -7 -12   -8.10    9.40
   1   9  11    7.90   13.80
  -1   9 -11   26.70   11.60
  -1   9 -11    1.00   11.80
   1   9  11   26.50   16.20
   1   9  11   32.50   13.10
  -1  -9 -11    0.90   14.50
   1  -9  11    5.60   12.80
  -1  -9 -11    2.70   13.60
   1  -9  11   18.00   14.20
  -1  -9 -11   21.70   19.30
  -2   0 -11  -10.60   10.60
  -2   0 -11  -12.10    9.80
   2   0  11  -10.20    6.40
   2   0  11    2.20   10.80
   0   0 -12  329.67   19.80
   0   0 -12  302.27   18.40
   0   0 -12  312.57   19.30
   0   0  12  333.17   20.70
   2   0 -13   12.60    9.80
  -2   2 -11   26.70   10.80
   2   2  11   33.30   12.30
  -2   2 -11   30.60   11.50
   2   2  11   35.00    9.10
  -2  -2 -11   19.80   11.60
   2  -2  11   38.90   12.40
  -2  -2 -11   17.60   11.70
   2  -2  11   26.80    5.40
   0   2 -12   30.70    7.30
   0   2  12   31.30    7.80
   0   2 -12   32.00    6.80
   0   2  12   33.50    8.30
   0   2  12   23.20    7.80
   0  -2 -12   37.20    9.30
   0  -2  12   26.00    7.80
   0  -2 -12   19.70    7.70
   2  -2 -13   30.70   13.70
  -2   4 -11   25.90   11.80
   2  -4  11   15.10   12.40
   0   4  12   31.30    8.90
   0   4  12   46.40   10.00
   0   4 -12   55.29    8.30
   0   4 -12   50.19    8.40
   0  -4 -12   54.59    8.90
   0  -4  12   49.00    8.50
   0  -4 -12   66.49   13.50
   0  -4 -12   72.79   10.00
   2   4 -13    1.60    5.40
   2  -4 -13    6.10   14.70
  -2   6 -11    8.30   11.20
   2   6  11   -5.00   15.40
   2   6  11   12.30   14.40
  -2   6 -11   -9.70   12.40
   2   6  11   25.20   12.30
   2  -6  11   12.20   14.00
   2  -6  11   22.80   14.40
  -2  -6 -11   -0.60   13.60
  -2  -6 -11    8.40   14.20
   0   6  12    1.20    9.60
   0   6 -12    3.40    7.80
   0   6 -12   -8.30    7.70
   0   6  12    2.70    8.30
   0  -6  12    5.30    9.10
   0  -6 -12   17.90   15.80
   0  -6 -12   11.40   10.70
   0  -6  12   -1.10    8.10
   0  -6 -12   -1.20    8.60
   0   8  12   26.80   11.10
   0   8  12   16.50   13.60
   0   8  12   14.10   12.00
   0   8 -12   25.20   10.30
   0  -8 -12   37.80   20.60
   0  -8  12   16.30   11.50
   0  -8 -12   22.20   18.10
   0  -8 -12   41.20   14.50
   1   1  12   73.69   12.20
   1   1  12   50.69    8.50
  -1   1 -12   89.89   12.00
  -1   1 -12   77.69   11.00
   1   1  12   62.69   12.00
   1  -1  12   89.79   12.40
   1  -1  12   63.49   11.60
  -1  -1 -12   71.59   11.20
  -1  -1 -12   91.39   12.70
   1   1 -13    9.60    6.30
   1  -1 -13   10.90    9.40
   1   3  12    1.10   10.10
   1   3  12    0.10   10.10
  -1   3 -12   -8.20    9.30
   1   3  12   19.40    9.40
  -1   3 -12    1.60    8.50
   1  -3  12    0.80    9.90
  -1  -3 -12   17.50   10.90
   1  -3  12   -1.80   10.30
  -1  -3 -12    2.90    9.20
  -1   3  13    0.70    4.20
   1  -3 -13   14.20   12.90
   1   5  12    7.90   11.40
  -1   5 -12   -9.20    8.50
  -1   5 -12  -23.50   10.00
   1   5  12   -0.60   11.30
  -1  -5 -12   10.70   12.40
   1  -5  12    5.70   11.00
   1  -5  12    2.80   11.20
  -1  -5 -12    4.70   10.50
  -1   5  13   -7.50    8.60
  -1  -5  13    4.90    4.10
   1  -5 -13   -1.20    5.00
   1  -5 -13    2.30    8.60
   1  -5 -13  -21.70   16.40
   2   0  12   40.30   14.60
  -2   0 -12   44.40   13.70
   2   0  12   51.89    8.90
  -2   0 -12   36.70   13.80
   0   0 -13   -5.70    6.50
   0   0 -13   -1.70    6.90
  -2   2 -12    4.60   13.10
  -2   2 -12   35.70   13.00
   2   2  12   17.00   10.30
   2   2  12    9.30   14.10
  -2  -2 -12    9.70   14.20
   2  -2  12   35.00   14.10
  -2  -2 -12   32.20   13.30
   0   2 -13  117.89   14.40
   0   2 -13  148.19   15.80
   0  -2 -13  136.19   17.50
   0  -2 -13  110.89   13.30
   0  -2 -13  124.29   15.70
   0   4 -13   -4.40    7.20
   0   4 -13   -0.20    8.50
   0   4  13    8.40    8.70
   0   4  13    3.60   10.90
   0   4  13   15.60   10.20
   0  -4  13   16.80    9.40
   0  -4 -13    4.30   14.30
   0  -4 -13   29.00   10.50
   1   1  13   31.20    9.20
  -1   1 -13   44.00   12.40
   1   1  13   44.30   12.90
  -1  -1 -13   35.90   12.20
   1  -1  13   33.10   12.70
   0   0   0    0.00    0.00

_computing_structure_solution     'SHELXT 2018/2 (Sheldrick, 2018)'
;
loop_
_space_group_symop_operation_xyz
'x, y, z'
'-x, y, -z+1/2'
'x+1/2, y+1/2, z'
'-x+1/2, y+1/2, -z+1/2'
'-x, -y, -z'
'x, -y, z-1/2'
'-x+1/2, -y+1/2, -z'
'x+1/2, -y+1/2, z-1/2'
loop_
_atom_site_label
_atom_site_type_symbol
_atom_site_fract_x
_atom_site_fract_y
_atom_site_fract_z
_atom_site_U_iso_or_equiv
_atom_site_adp_type
_atom_site_occupancy
_atom_site_site_symmetry_order
_atom_site_calc_flag
_atom_site_refinement_flags_posn
_atom_site_refinement_flags_adp
_atom_site_refinement_flags_occupancy
_atom_site_disorder_assembly
_atom_site_disorder_group
C1 C 0.5631(5) 0.68953(19) 0.5970(2) 0.0202(7) Uani 1 1 d . . . . .
C2 C 0.7898(5) 0.64106(17) 0.6751(2) 0.0182(7) Uani 1 1 d . . . . .
C3 C 0.7968(5) 0.54292(19) 0.6763(2) 0.0228(7) Uani 1 1 d . . . . .
H3 H 0.658099 0.509021 0.624983 0.027 Uiso 1 1 calc R . . . .
C4 C 1.000000 0.4931(3) 0.750000 0.0256(9) Uani 1 2 d S T P . .
H4 H 1.000004 0.426024 0.749999 0.031 Uiso 1 2 calc RS T P . .
C5 C 1.000000 0.6937(3) 0.750000 0.0194(9) Uani 1 2 d S T P . .
H1 H 0.880(6) 0.822(2) 0.703(3) 0.036(8) Uiso 1 1 d . . . . .
N1 N 1.000000 0.7890(2) 0.750000 0.0217(8) Uani 1 2 d S T P . .
O1 O 0.5330(4) 0.77617(12) 0.59221(16) 0.0241(6) Uani 1 1 d . . . . .
O2 O 0.3897(4) 0.63144(12) 0.53111(17) 0.0269(6) Uani 1 1 d . . . . .
H2 H 0.258772 0.662500 0.493303 0.040 Uiso 1 1 calc GR . . . .
loop_
_atom_site_aniso_label
_atom_site_aniso_U_11
_atom_site_aniso_U_22
_atom_site_aniso_U_33
_atom_site_aniso_U_23
_atom_site_aniso_U_13
_atom_site_aniso_U_12
C1 0.0160(14) 0.0283(15) 0.0160(13) -0.0023(10) 0.0019(10) 0.0004(11)
C2 0.0154(15) 0.0229(15) 0.0157(13) 0.0006(9) 0.0009(11) 0.0006(10)
C3 0.0189(15) 0.0248(16) 0.0233(14) -0.0029(10) -0.0014(11) -0.0031(11)
C4 0.021(2) 0.022(2) 0.032(2) 0.000 -0.0019(17) 0.000
C5 0.0167(19) 0.026(2) 0.0158(18) 0.000 0.0037(15) 0.000
N1 0.0181(18) 0.0227(18) 0.0214(17) 0.000 -0.0053(14) 0.000
O1 0.0189(11) 0.0238(11) 0.0266(11) -0.0019(7) -0.0056(8) 0.0016(8)
O2 0.0227(12) 0.0250(11) 0.0291(11) -0.0031(8) -0.0079(9) 0.0006(8)
loop_
_atom_type_symbol
_atom_type_description
_atom_type_scat_dispersion_real
_atom_type_scat_dispersion_imag
_atom_type_scat_source
C C 0.0033 0.0016 'International Tables Vol C Tables 4.2.6.8 and 6.1.1.4'
H H 0.0000 0.0000 'International Tables Vol C Tables 4.2.6.8 and 6.1.1.4'
N N 0.0061 0.0033 'International Tables Vol C Tables 4.2.6.8 and 6.1.1.4'
O O 0.0106 0.0060 'International Tables Vol C Tables 4.2.6.8 and 6.1.1.4'
loop_
_geom_angle_atom_site_label_1
_geom_angle_atom_site_label_2
_geom_angle_atom_site_label_3
_geom_angle
_geom_angle_site_symmetry_1
_geom_angle_site_symmetry_3
O1 C1 C2 124.3(2) . .
O1 C1 O2 122.0(2) . .
O2 C1 C2 113.7(2) . .
C3 C2 C1 119.1(2) . .
C3 C2 C5 119.9(2) . .
C5 C2 C1 120.9(3) . .
C2 C3 H3 119.0 . .
C4 C3 C2 122.0(3) . .
C4 C3 H3 119.0 . .
C3 C4 C3 118.7(3) . 2_756
C3 C4 H4 120.6 . .
C3 C4 H4 120.6 2_756 .
C2 C5 C2 117.4(3) . 2_756
N1 C5 C2 121.32(17) . 2_756
N1 C5 C2 121.32(17) . .
C5 N1 H1 123(2) . 2_756
C5 N1 H1 123(2) . .
H1 N1 H1 114(4) . 2_756
C1 O2 H2 109.5 . .
loop_
_geom_bond_atom_site_label_1
_geom_bond_atom_site_label_2
_geom_bond_distance
_geom_bond_site_symmetry_2
C1 C2 1.475(3) .
C1 O1 1.237(3) .
C1 O2 1.323(3) .
C2 C3 1.391(4) .
C2 C5 1.434(3) .
C3 H3 0.9500 .
C3 C4 1.385(3) .
C4 H4 0.9500 .
C5 N1 1.351(5) .
N1 H1 0.87(3) .
O2 H2 0.8400 .
