#------------------------------------------------------------------------------
#$Date: 2022-07-01 12:22:16 +0300 (Fri, 01 Jul 2022) $
#$Revision: 276482 $
#$URL: file:///home/coder/svn-repositories/cod/cif/8/10/56/8105611.cif $
#------------------------------------------------------------------------------
#
# This file is available in the Crystallography Open Database (COD),
# http://www.crystallography.net/
#
# All data on this site have been placed in the public domain by the
# contributors.
#
data_8105611
loop_
_publ_author_name
'Xue, Li'
'Han-Yang, Sun'
'Shuang, Han'
'Jia-Jun, Wang'
'Hao-Yan, Mao'
'Chun-Ling, Liu'
'Shou-Cai, Zhang'
'Chuan-Bi, Li'
_publ_section_title
;
 The crystal structure of
 poly[triaqua-bis(\m3-2,5-dihydroxyterephthalato-\k4
 O,O&#x2032;:O&#x2032;&#x2032;:O&#x2032;&#x2032;&#x2032;)-(\m4-oxalato-\k4
 O,O&#x2032;:O&#x2032;&#x2032;,O&#x2032;&#x2032;&#x2032;)cerium(III)],
 C9H10CeO11
;
_journal_issue                   2
_journal_name_full
'Zeitschrift f\"ur Kristallographie - New Crystal Structures'
_journal_page_first              259
_journal_page_last               260
_journal_paper_doi               10.1515/ncrs-2018-0300
_journal_volume                  234
_journal_year                    2019
_chemical_formula_moiety         '[Ce(OA)0.5(DHTA)(H2O)3]n'
_chemical_formula_sum            'C9 H10 Ce O11'
_chemical_formula_weight         434.29
_chemical_name_systematic
;
Poly[[[Triaqua(bi-2,5-dihydroxyterephthalato-\kO)cerium
]
-\m-2,5-dihydroxyterephthalato-\k2O:O\#8242;]-\m-oxalato]
;
_space_group_crystal_system      triclinic
_space_group_IT_number           2
_space_group_name_Hall           '-P 1'
_space_group_name_H-M_alt        'P -1'
_atom_sites_solution_hydrogens   mixed
_atom_sites_solution_primary     direct
_atom_sites_solution_secondary   difmap
_audit_creation_method           SHELXL-2016/6
_cell_angle_alpha                69.53(3)
_cell_angle_beta                 83.56(3)
_cell_angle_gamma                87.01(3)
_cell_formula_units_Z            2
_cell_length_a                   6.9100(14)
_cell_length_b                   9.1700(18)
_cell_length_c                   10.720(2)
_cell_measurement_reflns_used    2047
_cell_measurement_temperature    298(2)
_cell_measurement_theta_max      26.010
_cell_measurement_theta_min      2.038
_cell_volume                     632.3(2)
_computing_cell_refinement       'Bruker SMART'
_computing_data_collection       'Bruker SMART[12]'
_computing_data_reduction        'Bruker SAINT[13]'
_computing_molecular_graphics    'Diamond 3.2 (Brandenburg & Putz, 2012)[16]'
_computing_publication_material  'SHELXL-2016/6 (Sheldrick, 2016)'
_computing_structure_refinement  'SHELXL-2016/6 (Sheldrick, 2016)[15]'
_computing_structure_solution    'SHELXL-2016/6 (Sheldrick, 2016)[14]'
_diffrn_ambient_temperature      298(2)
_diffrn_measured_fraction_theta_full 0.984
_diffrn_measured_fraction_theta_max 0.981
_diffrn_measurement_device_type  'Bruker AXS SMART APEX CCD'
_diffrn_measurement_method       'phi and omega scans'
_diffrn_radiation_type           MoK\a
_diffrn_radiation_wavelength     0.71073
_diffrn_reflns_av_R_equivalents  0.0401
_diffrn_reflns_av_unetI/netI     0.0605
_diffrn_reflns_Laue_measured_fraction_full 0.984
_diffrn_reflns_Laue_measured_fraction_max 0.981
_diffrn_reflns_limit_h_max       8
_diffrn_reflns_limit_h_min       -8
_diffrn_reflns_limit_k_max       11
_diffrn_reflns_limit_k_min       -10
_diffrn_reflns_limit_l_max       12
_diffrn_reflns_limit_l_min       -13
_diffrn_reflns_number            3454
_diffrn_reflns_point_group_measured_fraction_full 0.984
_diffrn_reflns_point_group_measured_fraction_max 0.981
_diffrn_reflns_theta_full        25.242
_diffrn_reflns_theta_max         26.010
_diffrn_reflns_theta_min         2.038
_exptl_absorpt_coefficient_mu    3.659
_exptl_absorpt_correction_T_max  0.803
_exptl_absorpt_correction_T_min  0.623
_exptl_absorpt_correction_type   multi-scan
_exptl_absorpt_process_details
;
Absorption correction: multi-scan 
(SADABS; Sheldrick, 2008.)
;
_exptl_crystal_colour            'light pink'
_exptl_crystal_density_diffrn    2.281
_exptl_crystal_description       block
_exptl_crystal_F_000             420
_exptl_crystal_size_max          0.18
_exptl_crystal_size_mid          0.11
_exptl_crystal_size_min          0.06
_refine_diff_density_max         1.244
_refine_diff_density_min         -1.552
_refine_diff_density_rms         0.123
_refine_ls_extinction_coef       .
_refine_ls_extinction_method     none
_refine_ls_goodness_of_fit_ref   1.000
_refine_ls_hydrogen_treatment    mixed
_refine_ls_matrix_type           full
_refine_ls_number_parameters     223
_refine_ls_number_reflns         2440
_refine_ls_number_restraints     0
_refine_ls_restrained_S_all      1.000
_refine_ls_R_factor_all          0.0316
_refine_ls_R_factor_gt           0.0265
_refine_ls_shift/su_max          0.000
_refine_ls_shift/su_mean         0.000
_refine_ls_structure_factor_coef Fsqd
_refine_ls_weighting_details
'w=1/[\s^2^(Fo^2^)+(0.0001P)^2^] where P=(Fo^2^+2Fc^2^)/3'
_refine_ls_weighting_scheme      calc
_refine_ls_wR_factor_gt          0.0474
_refine_ls_wR_factor_ref         0.0487
_reflns_Friedel_coverage         0.000
_reflns_Friedel_fraction_full    .
_reflns_Friedel_fraction_max     .
_reflns_number_gt                2158
_reflns_number_total             2440
_reflns_threshold_expression     'I > 2\s(I)'
_cod_data_source_file            suppl_ncrs-2018-0300_suppl.cif
_cod_data_source_block           shelx
_cod_database_code               8105611
_shelx_shelxl_version_number     2016/6
_shelx_space_group_comment
;
The symmetry employed for this shelxl refinement is uniquely defined
by the following loop, which should always be used as a source of
symmetry information in preference to the above space-group names.
They are only intended as comments.
;
_shelx_res_file
;
TITL shelxt_a.res in P-1
    shelx.res
    created by SHELXL-2016/6 at 19:40:58 on 18-Jul-2018
CELL  0.71073   6.9100   9.1700  10.7200   69.530   83.560   87.010
ZERR     2.00   0.0014   0.0018   0.0021    0.030    0.030    0.030
LATT   1
SFAC  C    H    O    CE
UNIT  18 20 22 2
MERG   2
FMAP   2
omit   2   3   0
omit   1  -4   1
omit  -2  -1   1
omit   1   5   1
omit   1  -2   2
omit  -2  -1   2
omit   0  -1   2
omit  -4   0   2
omit  -3   0   2
omit   1  -2   3
omit  -3  -1   3
omit   1   2   3
omit   0   5   3
omit   0  -2   4
omit   1  -1   4
PLAN   20
twin
BOND   $H
LIST   6
L.S.  30
TEMP    25.00
eqiv $1 -x, -y, -z+1
eqiv $2 -x+1, -y, -z+1
eqiv $3 x, y-1, z+1
eqiv $4 -x+1, -y+1, -z
htab C4 O7
htab O3 O5
htab O4 O2
htab O11 O3_$1
htab O10 O8_$2
htab O9 O7_$2
htab O9 O3_$2
htab O11 O4_$3
htab O10 O6_$4
ACTA
WGHT    0.000100
BASF   0.50000
FVAR       0.25773
CE    4    0.204202    0.228116    0.619687    11.00000    0.01553    0.01298 =
         0.01344   -0.00428   -0.00028   -0.00076
O7    3    0.245344    0.048425    0.484156    11.00000    0.01677    0.02539 =
         0.02458   -0.01270    0.00096   -0.00205
O6    3    0.294510    0.459090   -0.293966    11.00000    0.04178    0.02997 =
         0.01610   -0.00702   -0.00376   -0.00818
O3    3    0.319475    0.140001    0.087020    11.00000    0.03761    0.01517 =
         0.01903   -0.00630   -0.00372    0.00345
O1    3    0.167695    0.429223    0.406897    11.00000    0.03707    0.02499 =
         0.01222   -0.00218   -0.00118    0.00503
O2    3    0.091461    0.669750    0.279135    11.00000    0.02565    0.02117 =
         0.01945   -0.00783    0.00134    0.00458
O8    3    0.107666   -0.144995    0.443939    11.00000    0.01973    0.03094 =
         0.04486   -0.02652   -0.00768    0.00391
O10   3    0.537698    0.302864    0.509662    11.00000    0.01494    0.03028 =
         0.04420    0.01091    0.00691    0.00015
O5    3    0.334580    0.217205   -0.162310    11.00000    0.04675    0.02101 =
         0.02372   -0.01107   -0.00925    0.00403
O4    3    0.184292    0.762613    0.023548    11.00000    0.05126    0.01713 =
         0.01660   -0.00081   -0.00027    0.00489
O11   3    0.043973    0.000754    0.808272    11.00000    0.02363    0.03422 =
         0.05188    0.01672   -0.00185   -0.00414
O9    3    0.443783   -0.000871    0.702525    11.00000    0.03206    0.03833 =
         0.02246   -0.01144   -0.00512    0.01820
C5    1    0.286114    0.296345    0.069543    11.00000    0.01446    0.01592 =
         0.02170   -0.00518   -0.00167   -0.00034
C7    1    0.287782    0.410282   -0.059128    11.00000    0.01442    0.01972 =
         0.01434   -0.00424    0.00167   -0.00506
C2    1    0.210828    0.492829    0.170302    11.00000    0.01515    0.01774 =
         0.01349   -0.00268   -0.00296    0.00044
C9    1    0.101454   -0.028676    0.480203    11.00000    0.02106    0.01951 =
         0.01442   -0.00634   -0.00297    0.00098
C4    1    0.247758    0.338916    0.181687    11.00000    0.02211    0.01866 =
         0.01164   -0.00137    0.00020    0.00350
AFIX  43
H4    2    0.246735    0.262881    0.266246    11.00000   -1.20000
AFIX   0
C8    1    0.310322    0.362469   -0.179694    11.00000    0.01783    0.02758 =
         0.01412   -0.00687   -0.00257   -0.00346
C3    1    0.217578    0.608256    0.041433    11.00000    0.01821    0.01105 =
         0.01843   -0.00177   -0.00076   -0.00104
C1    1    0.154302    0.532306    0.294777    11.00000    0.01391    0.01935 =
         0.01730   -0.00666   -0.00200    0.00220
C6    1    0.254126    0.565126   -0.070478    11.00000    0.02238    0.02019 =
         0.00921    0.00139    0.00004   -0.00315
AFIX  43
H6    2    0.256250    0.641202   -0.155075    11.00000   -1.20000
AFIX   0
H3    2    0.335491    0.145800   -0.011436    11.00000    0.05036
H4A   2    0.164918    0.776202    0.112851    11.00000    0.07796
H11A  2   -0.053345   -0.027762    0.824513    11.00000    0.02625
H10A  2    0.647312    0.241900    0.540448    11.00000    0.04959
H9B   2    0.516464   -0.027440    0.648467    11.00000    0.04711
H9A   2    0.500685   -0.016173    0.781791    11.00000    0.08222
H11B  2    0.104077   -0.058488    0.855280    11.00000    0.04266
H10B  2    0.558588    0.355619    0.453430    11.00000    0.08380
HKLF    4




REM  shelxt_a.res in P-1
REM R1 =  0.0265 for    2158 Fo > 4sig(Fo)  and  0.0316 for all    2440 data
REM    223 parameters refined using      0 restraints

END

WGHT      0.0117      0.0000

REM Highest difference peak  1.244,  deepest hole -1.552,  1-sigma level  0.123
Q1    1   0.2536  0.2201  0.6988  11.00000  0.05    1.24
Q2    1   0.1535  0.2364  0.5443  11.00000  0.05    1.08
Q3    1   0.0000  0.0000  0.5000  10.50000  0.05    0.59
Q4    1   0.2822  0.2630  0.5805  11.00000  0.05    0.56
Q5    1   0.1230  0.0693  0.7194  11.00000  0.05    0.50
Q6    1   0.3358  0.3958 -0.1230  11.00000  0.05    0.50
Q7    1   0.4111  0.2036 -0.2561  11.00000  0.05    0.47
Q8    1  -0.0271  0.6813  0.3062  11.00000  0.05    0.46
Q9    1   0.1334  0.1278  0.6635  11.00000  0.05    0.42
Q10   1   0.1588  0.5592  0.1005  11.00000  0.05    0.42
Q11   1   0.2555  0.3806  0.5021  11.00000  0.05    0.41
Q12   1   0.2550  0.5717  0.1146  11.00000  0.05    0.41
Q13   1   0.2479  0.1454  0.6361  11.00000  0.05    0.41
Q14   1  -0.0235  0.1265  0.8401  11.00000  0.05    0.40
Q15   1   0.2305  0.5246  0.2361  11.00000  0.05    0.39
Q16   1   0.3869  0.1575  0.5593  11.00000  0.05    0.37
Q17   1   0.1946  0.6723  0.0373  11.00000  0.05    0.36
Q18   1   0.1278  0.1486  0.7794  11.00000  0.05    0.36
Q19   1   0.0768  0.6512  0.2193  11.00000  0.05    0.36
Q20   1   0.2060  0.3180  0.6085  11.00000  0.05    0.35
;
_shelx_hkl_file
;
   0   0  -1  270.25    2.33
   0   0   2   51.36    1.46
   0   0  -3   61.09    3.10
   0   0   3   62.65    2.01
   0   0  -4  189.71    6.20
   0   0   4  198.64    3.99
   0   0  -5   97.75    5.06
   0   0  -5  121.33    4.92
   0   0   5  109.68    3.32
   0   0  -6    1.66    1.28
   0   0  -6    0.50    0.84
   0   0   6    1.03    0.71
   0   0  -7   55.29    4.82
   0   0  -7   58.15    4.19
   0   0  -8   63.84    5.51
   0   0  -8   69.95    4.93
   0   0  -9  388.70   14.04
   0   0  -9  436.06   12.71
   0   0 -10   46.52    5.48
   0   0 -11   30.66    5.70
   0   0 -12   78.56    7.77
   0   1 -11   99.83    8.58
   0   1 -10  105.27    8.29
   0   1  -9   42.79    5.21
   0   1  -8   11.84    3.23
   0   1  -8    8.31    2.25
   0   1  -7   34.65    4.23
   0   1  -6  158.47    7.53
   0   1  -5   95.09    3.22
   0   1  -5   90.34    5.24
   0   1  -4   12.98    1.23
   0   1  -4   11.62    2.17
   0   1  -3  471.08    6.04
   0   1  -3  418.44    8.74
   0   1  -2 1062.33    8.27
   0   1  -2  950.34   11.17
   0   1  -1 1269.54    8.38
   0   1   0    5.35    0.61
   0   1   1  172.87    3.16
   0   1   2  539.07    6.07
   0  -1  -3   80.44    3.14
   0  -1  -3   84.74    3.25
   0   1   3   80.44    2.67
   0  -1  -4   20.57    2.14
   0  -1  -4   22.29    2.05
   0   1   4   20.50    1.61
   0  -1  -5   88.82    4.55
   0  -1  -5   95.33    4.37
   0   1   5   90.81    3.33
   0  -1  -6  340.24    9.70
   0  -1  -6  376.64    9.41
   0   1   6  354.97    6.88
   0  -1  -7  175.46    7.76
   0  -1  -7  178.68    7.11
   0  -1  -8  189.00    8.77
   0  -1  -8  204.71    8.19
   0  -1  -9  145.77    8.32
   0  -1  -9  169.60    8.05
   0  -1 -10  105.56    7.71
   0  -1 -11  156.90    9.94
   0  -1 -12   20.97    4.91
   0   2 -11   29.88    5.87
   0   2 -10    0.07    1.88
   0   2  -9   58.11    6.29
   0   2  -8  242.61   11.47
   0   2  -7  131.02    7.93
   0   2  -6    5.50    2.17
   0   2  -5  153.86    4.66
   0   2  -5  143.49    7.05
   0   2  -4  870.53   10.56
   0   2  -4  769.98   14.57
   0   2  -3  480.85    7.59
   0   2  -3  441.32    9.92
   0   2  -2    1.69    0.71
   0   2  -2    2.19    0.96
   0   2  -1   79.86    3.01
   0   2  -1   80.55    3.23
   0   2   0  276.85    5.46
   0  -2  -1  119.18    3.68
   0   2   1  138.62    3.93
   0  -2  -2  377.88    6.86
   0  -2  -3   11.34    1.31
   0  -2  -3   10.84    1.66
   0   2   3   13.21    1.57
   0  -2  -4  116.89    4.15
   0  -2  -4  121.66    4.69
   0   2   4  113.28    4.05
   0  -2  -5  698.89   11.48
   0  -2  -5  720.49   12.30
   0   2   5  702.54   10.39
   0  -2  -6  111.67    5.31
   0  -2  -6  114.98    5.46
   0   2   6  109.66    4.39
   0  -2  -7   20.74    3.20
   0  -2  -7   19.02    3.01
   0   2   7   20.64    2.22
   0  -2  -8  258.43    9.70
   0  -2  -8  269.40    9.51
   0  -2  -9  140.22    7.84
   0  -2  -9  144.97    7.55
   0  -2 -10   11.01    3.24
   0  -2 -10   10.20    2.71
   0  -2 -11   21.34    4.55
   0  -2 -12   43.93    6.64
   0   3 -10   72.68    7.60
   0   3  -9   42.65    6.45
   0   3  -8    2.36    2.28
   0   3  -7  126.21    8.25
   0   3  -6  362.93   12.73
   0   3  -5  287.58    7.27
   0   3  -5  252.59    9.87
   0   3  -4   51.03    3.11
   0   3  -4   46.05    4.16
   0   3  -3   83.38    3.85
   0   3  -3   76.26    4.67
   0   3  -2  443.15    8.59
   0   3  -2  415.36    9.47
   0   3  -1  349.86    7.58
   0   3  -1  348.55    7.69
   0   3   0    5.75    1.32
   0   3   0    7.07    1.26
   0   3   1  178.90    5.52
   0   3   1  197.81    4.32
   0  -3  -3 1024.26   13.89
   0   3   3 1098.78   13.98
   0  -3  -4  693.84    9.29
   0  -3  -4  606.37   11.34
   0   3   4  608.80   10.70
   0  -3  -5   19.92    2.06
   0  -3  -5   16.53    2.56
   0   3   5   19.04    2.23
   0  -3  -6  143.14    5.68
   0  -3  -6  138.04    6.25
   0   3   6  134.26    5.47
   0  -3  -7  215.00    7.69
   0  -3  -7  236.71    8.68
   0   3   7  211.99    7.04
   0  -3  -8   83.96    5.51
   0  -3  -8   88.23    5.81
   0   3   8   83.10    4.65
   0  -3  -9   30.46    4.35
   0  -3  -9   26.15    4.04
   0  -3 -10  110.52    7.29
   0  -3 -10  113.31    7.35
   0  -3 -11  145.92    8.84
   0  -3 -11  145.08    8.54
   0  -3 -12   48.15    5.73
   0  -3 -13   32.69    5.91
   0   4  -9   29.83    5.79
   0   4  -8  138.00    9.58
   0   4  -7   45.40    5.46
   0   4  -6   81.02    6.51
   0   4  -5   26.51    4.26
   0   4  -4  128.61    5.52
   0   4  -4  120.62    6.87
   0   4  -3  253.27    7.64
   0   4  -3  248.61    8.90
   0   4  -2  108.37    5.02
   0   4  -2   95.38    5.15
   0   4  -1   23.41    2.49
   0   4  -1   19.05    2.28
   0   4   0  555.06   11.07
   0   4   0  600.08   10.12
   0   4   1  757.24   10.07
   0   4   2   15.18    2.39
   0   4   2   17.05    1.42
   0  -4  -3    8.49    1.95
   0   4   3   10.40    2.04
   0  -4  -4  146.32    6.24
   0   4   4  158.92    6.27
   0  -4  -5  346.84    7.33
   0  -4  -5  294.67    9.18
   0   4   5  310.05    8.91
   0  -4  -6   23.73    2.47
   0  -4  -6   21.53    3.36
   0   4   6   20.91    3.05
   0  -4  -7    9.94    2.13
   0  -4  -7    8.15    2.35
   0   4   7    7.68    2.06
   0  -4  -8  133.77    6.46
   0  -4  -8  125.96    7.13
   0   4   8  125.85    6.23
   0  -4  -9  303.67   10.45
   0  -4  -9  285.96   11.05
   0  -4 -10  135.68    7.60
   0  -4 -10  149.98    8.54
   0  -4 -11    9.87    3.04
   0   5  -9   67.18    7.61
   0   5  -8    7.50    3.24
   0   5  -7    5.86    2.89
   0   5  -6  103.98    7.83
   0   5  -5  277.01   11.73
   0   5  -4  132.76    6.26
   0   5  -4  126.41    7.52
   0   5  -3    1.30    1.20
   0   5  -3    2.28    1.57
   0   5  -2  132.52    6.22
   0   5  -2  126.63    6.44
   0   5  -1  281.33    8.95
   0   5  -1  264.73    8.39
   0   5   0  262.22    8.67
   0   5   0  258.07    7.52
   0   5   1   28.86    3.05
   0   5   1   29.52    2.50
   0   5   2   86.41    5.12
   0   5   2   95.23    3.82
   0   5   3  356.11   10.27
   0   5   3  419.01    7.42
   0  -5  -4   85.28    5.34
   0   5   4   94.57    5.45
   0  -5  -5    7.38    2.24
   0   5   5    7.46    2.15
   0  -5  -6  150.30    7.57
   0   5   6  156.10    7.23
   0  -5  -7  230.41    7.26
   0  -5  -7  195.29    8.85
   0   5   7  201.11    8.31
   0  -5  -8  140.35    7.97
   0   5   8  141.44    7.18
   0  -5  -9   16.65    3.67
   0   5   9   13.96    3.06
   0  -5 -10   44.24    5.22
   0  -5 -11  123.77    8.47
   0  -5 -12   87.84    7.51
   0   6  -8   89.25    8.57
   0   6  -7  105.24    8.75
   0   6  -6   41.71    6.34
   0   6  -5   10.31    3.10
   0   6  -4  108.73    7.44
   0   6  -3  497.85   13.24
   0   6  -3  462.22   13.93
   0   6  -2   -0.62    0.96
   0   6  -2    0.34    1.16
   0   6  -1   13.06    2.72
   0   6  -1   12.63    2.65
   0   6   0   61.08    4.78
   0   6   0   53.09    3.93
   0   6   1  261.50    9.59
   0   6   1  260.41    7.69
   0   6   2  183.12    8.09
   0   6   2  205.24    6.28
   0   6   3    8.16    2.33
   0   6   3   11.61    1.84
   0   6   4  158.56    7.71
   0  -6  -5  361.98   11.93
   0   6   5  400.85   12.28
   0  -6  -6  412.51   13.14
   0   6   6  433.17   12.91
   0  -6  -7    5.21    2.53
   0   6   7    6.12    2.22
   0  -6  -8   61.29    5.83
   0   6   8   65.43    5.40
   0  -6  -9  135.14    8.60
   0   6   9  135.85    7.71
   0  -6 -10  111.36    8.01
   0  -6 -11   31.00    5.51
   0  -6 -12   12.44    3.95
   0   7  -6   39.02    6.30
   0   7  -5  163.09   10.07
   0   7  -4   59.10    5.95
   0   7  -3   11.53    2.97
   0   7  -3   13.69    3.31
   0   7  -2    5.15    2.13
   0   7  -2    6.50    2.34
   0   7  -1  147.90    7.97
   0   7  -1  143.03    7.36
   0   7   0   77.20    5.84
   0   7   0   80.45    5.26
   0   7   1    8.80    2.65
   0   7   1   10.11    2.22
   0   7   2   63.48    5.34
   0   7   3  292.39   11.24
   0   7   4  219.23    9.78
   0   7   5   80.39    6.12
   0  -7  -6  275.74   11.60
   0   7   6  320.81   12.04
   0  -7  -7   69.73    6.34
   0   7   7   71.58    5.95
   0  -7  -8  183.03    9.97
   0   7   8  199.01    9.81
   0  -7  -9   27.42    5.01
   0   7   9   37.12    4.51
   0   7  10   12.02    3.19
   0  -7 -11   75.34    7.25
   0  -7 -12   83.95    7.79
   0   8  -5   -1.29    1.95
   0   8  -4   19.95    4.48
   0   8  -3   98.96    7.48
   0   8  -2  128.13    8.06
   0   8  -2  135.20    8.13
   0   8  -1   73.83    6.20
   0   8   0   45.10    5.00
   0   8   1  174.36    9.35
   0   8   2  140.96    8.44
   0   8   3   17.94    3.88
   0   8   4   58.41    5.59
   0   8   5  225.76   10.79
   0   8   6   94.06    7.12
   0   8   7   80.86    6.72
   0  -8  -8    2.53    2.12
   0   8   8    1.25    1.75
   0  -8  -9   32.83    5.86
   0   8   9   38.04    5.72
   0  -8 -10  124.47    9.37
   0   8  10  139.09    9.03
   0  -8 -11   38.22    6.35
   0   9  -2    6.74    2.62
   0   9  -1  111.48    8.09
   0   9   0  185.78   10.37
   0   9   1   17.89    4.09
   0   9   2   75.46    6.79
   0   9   3  157.78    9.65
   0   9   4  173.50   10.15
   0   9   5   70.83    6.55
   0   9   6    1.02    1.55
   0   9   7   24.19    4.78
   0   9   8  128.45    9.06
   0   9   9   86.16    7.57
   0  -9 -10    5.49    3.32
   0   9  10    6.91    2.86
   0  -9 -11   64.28    7.60
   0  10  -1   10.99    3.55
   0  10   0    3.93    2.44
   0  10   1   86.88    7.71
   0  10   2  123.30    9.18
   0  10   3   53.63    6.16
   0  10   4   -0.20    1.45
   0  10   5   52.69    6.27
   0  10   6  118.14    9.10
   0  10   7   63.88    6.77
   0  10   8   -0.11    1.60
   0  10   9   54.94    6.42
   0  11   2    5.00    3.17
   0  11   3   27.05    5.78
   0  11   4   87.90    8.50
   0  11   5   70.31    7.74
   0  11   6   -0.38    2.08
   0  11   7   51.59    7.71
  -1  11   6   96.65    8.88
  -1  11   5   80.73    8.14
  -1  11   4    2.12    2.43
  -1  11   3   21.27    5.23
  -1  10   9   33.05    5.99
  -1  10   8  107.68    8.85
  -1  10   7   96.72    8.38
  -1  10   6   10.93    3.60
  -1  10   5   38.61    6.28
  -1  10   4  135.65    9.80
  -1  10   3   69.79    7.11
  -1  10   2   21.42    4.85
  -1  10   1    6.24    2.81
  -1  10   0   61.69    6.73
  -1  10  -1   69.84    7.18
  -1   9  10  145.78    9.79
   1  -9 -10  143.92   10.73
  -1   9   9   98.15    7.99
   1  -9  -9   92.05    8.55
  -1   9   8   24.46    4.89
   1  -9  -8   19.40    4.68
  -1   9   7    6.65    2.62
  -1   9   6  130.06    8.97
  -1   9   5  145.39    9.44
  -1   9   4   40.98    6.06
  -1   9   3   13.99    3.66
  -1   9   2   51.65    5.73
  -1   9   1  139.21    9.22
  -1   9   0   47.52    5.67
  -1   9  -1    4.63    2.50
  -1   9  -2   61.34    6.34
   1  -8 -11  134.42   10.19
   1  -8 -10   15.60    4.28
  -1   8   9   33.27    5.33
   1  -8  -9   26.58    5.28
  -1   8   8  104.19    7.61
   1  -8  -8   94.47    7.87
  -1   8   7  127.95    8.37
   1  -8  -7  123.60    8.73
  -1   8   6   66.41    6.16
   1  -8  -6   59.91    6.13
  -1   8   5    7.69    2.72
  -1   8   4  163.15    9.29
  -1   8   3   97.63    7.26
  -1   8   2  214.85   10.59
  -1   8   1    2.04    1.69
  -1   8   0   79.71    6.59
  -1   8  -1  169.80    9.54
  -1   8  -2   70.77    6.36
  -1   8  -3    0.72    1.65
  -1   8  -5  103.11    8.36
   1  -7 -12   22.50    5.20
   1  -7 -11    4.77    2.95
   1  -7 -10  133.16    9.49
  -1   7   9  125.26    7.83
   1  -7  -9  115.62    8.59
  -1   7   8   67.87    5.82
   1  -7  -8   71.40    6.54
  -1   7   7    9.53    2.87
   1  -7  -7   10.66    3.41
  -1   7   6  116.33    7.40
   1  -7  -6  116.95    7.86
  -1   7   5   98.23    6.77
   1  -7  -5   82.45    6.72
  -1   7   4   72.80    5.87
  -1   7   3    0.67    1.31
  -1   7   2   90.51    6.45
  -1   7   1  293.77   11.46
  -1   7   0  108.10    7.09
  -1   7  -1    1.61    1.67
  -1   7  -2   84.47    6.40
  -1   7  -2   84.59    5.92
  -1   7  -3  235.40   10.50
  -1   7  -3  215.83    9.97
  -1   7  -4  110.45    7.73
  -1   7  -5    3.88    2.35
  -1   7  -6    0.19    1.83
   1  -6 -12   76.73    7.48
   1  -6 -11  124.98    9.14
   1  -6 -10  150.35    9.65
   1  -6  -9    2.83    2.20
  -1   6   8   60.88    5.11
   1  -6  -8   50.92    5.58
  -1   6   7  171.95    8.30
   1  -6  -7  182.25    9.40
  -1   6   6  185.90    8.55
   1  -6  -6  180.87    9.14
  -1   6   5    0.73    1.26
   1  -6  -5    1.92    1.75
  -1   6   4   79.06    5.58
   1  -6  -4   78.44    5.77
  -1   6   3   90.82    5.99
   1  -6  -3   80.85    5.81
  -1   6   2  240.67    9.50
  -1   6   1    2.23    1.49
  -1   6   0   80.67    5.62
  -1   6   0   72.58    4.25
  -1   6  -1  365.72   11.84
  -1   6  -1  329.63    9.64
  -1   6  -2   99.68    6.38
  -1   6  -2   81.79    5.44
  -1   6  -3  103.59    6.52
  -1   6  -3   88.79    6.12
  -1   6  -4   24.03    3.95
  -1   6  -4   23.31    4.24
  -1   6  -5  126.71    8.32
  -1   6  -6   59.04    6.14
  -1   6  -7   13.25    3.98
  -1   6  -8   10.59    3.86
   1  -5 -12   51.70    6.21
   1  -5 -11   -1.10    1.49
   1  -5 -10  124.09    8.44
   1  -5  -9  110.70    7.67
  -1   5   8  158.45    7.35
   1  -5  -8  159.90    8.76
  -1   5   7   16.04    2.95
   1  -5  -7   13.86    3.21
  -1   5   6   40.71    3.88
   1  -5  -6   43.50    4.57
  -1   5   5  304.07    9.81
   1  -5  -5  273.43    9.99
  -1   5   4  173.98    7.39
   1  -5  -4  172.05    7.63
  -1   5   3    0.44    0.98
   1  -5  -3    1.56    1.26
  -1   5   2   78.01    4.98
   1  -5  -2   69.19    4.68
  -1   5   1 1191.43   19.05
  -1   5   1 1097.03   12.02
  -1   5   0  360.62   10.61
  -1   5   0  324.28    7.72
  -1   5  -1   75.92    5.02
  -1   5  -1   67.81    4.17
  -1   5  -2    2.11    1.34
  -1   5  -2    1.44    1.23
  -1   5  -3  131.89    6.70
  -1   5  -3  116.53    6.52
  -1   5  -4  189.97    8.09
  -1   5  -4  151.17    8.05
  -1   5  -5   59.25    4.82
  -1   5  -5   42.38    4.92
  -1   5  -6    3.58    2.37
  -1   5  -7   80.12    7.19
  -1   5  -8  148.96   10.25
  -1   5  -9   74.43    7.91
   1  -4 -12   42.05    6.46
   1  -4 -11  107.55    8.10
   1  -4 -10   89.42    7.09
   1  -4  -9    0.68    1.56
   1  -4  -8   35.05    4.97
  -1   4   7  104.48    5.40
   1  -4  -7  102.67    4.85
   1  -4  -7  105.63    6.67
  -1   4   6  124.02    5.74
   1  -4  -6  133.41    4.72
   1  -4  -6  125.70    6.81
  -1   4   5   69.68    4.32
   1  -4  -5   74.60    2.93
   1  -4  -5   70.65    4.94
  -1   4   4  100.41    5.09
   1  -4  -4   86.89    5.08
  -1   4   3  643.03   12.51
   1  -4  -3  590.27   12.25
   1  -4  -2  647.65   12.28
  -1   4   1    8.30    1.85
  -1   4   1    6.04    0.97
  -1   4   0   38.71    3.22
  -1   4   0   31.98    2.26
  -1   4  -1  553.74   11.88
  -1   4  -1  473.07    9.53
  -1   4  -2  221.24    7.67
  -1   4  -2  190.68    6.91
  -1   4  -3   74.13    4.62
  -1   4  -3   64.79    4.66
  -1   4  -4   13.10    2.55
  -1   4  -4   12.37    2.82
  -1   4  -5  102.71    5.63
  -1   4  -5   86.79    6.33
  -1   4  -6  202.02   10.02
  -1   4  -7  156.73    9.48
  -1   4  -8    4.41    2.53
  -1   4  -9   42.97    6.71
   1  -3 -12   69.17    6.75
   1  -3 -11    9.67    3.11
   1  -3 -11    5.27    2.44
   1  -3 -10   31.54    4.76
   1  -3 -10   29.30    4.78
   1  -3  -9  216.05    9.04
   1  -3  -9  217.63   10.05
   1  -3  -8  180.13    7.56
   1  -3  -8  164.76    8.26
  -1   3   7   69.05    3.88
   1  -3  -7   70.14    4.43
   1  -3  -7   71.02    5.30
  -1   3   6   10.70    1.92
   1  -3  -6   13.02    2.14
   1  -3  -6   12.27    2.64
  -1   3   5  195.51    6.18
   1  -3  -5  198.88    5.32
   1  -3  -5  199.23    7.52
  -1   3   4  529.28    9.95
   1  -3  -4  536.51   11.42
  -1   3   3  209.19    6.24
   1  -3  -3  208.10    6.71
  -1   3   2   25.58    2.38
   1  -3  -2   24.35    2.46
  -1   3   1  474.15    9.43
   1  -3  -1  419.45    8.38
  -1   3   0  366.42    8.41
  -1   3   0  318.18    5.68
  -1   3  -1  280.19    7.48
  -1   3  -1  244.73    6.12
  -1   3  -2   -0.19    0.55
  -1   3  -2    0.68    0.82
  -1   3  -3  180.97    6.36
  -1   3  -3  144.63    6.23
  -1   3  -4  356.37    9.15
  -1   3  -4  313.16   10.01
  -1   3  -5  141.73    5.98
  -1   3  -5  118.71    6.90
  -1   3  -6   10.23    2.22
  -1   3  -6    8.40    2.75
  -1   3  -7   48.67    5.36
  -1   3  -8   96.50    7.64
  -1   3  -9   52.03    6.25
  -1   3 -10    2.80    2.46
   1  -2 -12   16.47    4.31
   1  -2 -11   93.15    7.44
   1  -2 -11  110.00    7.94
   1  -2 -10  161.95    8.99
   1  -2 -10  173.43    9.32
   1  -2  -9   41.88    4.50
   1  -2  -9   52.01    5.07
   1  -2  -8   26.23    3.93
   1  -2  -8   25.31    3.98
   1  -2  -7  341.39    9.97
   1  -2  -7  357.61   11.13
  -1   2   6  375.50    7.24
   1  -2  -6  360.75    9.14
   1  -2  -6  389.31   10.82
  -1   2   5  389.82    7.24
   1  -2  -5  377.28    8.19
   1  -2  -5  414.56   10.31
  -1   2   4  283.46    6.09
   1  -2  -4  255.61    5.70
   1  -2  -4  282.64    7.88
  -1   2   3  205.25    5.18
   1  -2  -3  199.79    6.06
  -1   2   2  467.74    7.76
   1  -2  -2  467.35    8.34
  -1   2   1  310.39    6.43
   1  -2  -1  301.94    6.09
  -1   2   0   12.88    1.52
   1  -2   0   10.80    1.41
  -1   2  -1  182.19    5.24
  -1   2  -1  156.18    4.33
  -1   2  -2 1000.64   12.70
  -1   2  -2  841.68   11.86
  -1   2  -3 1002.99   13.25
  -1   2  -3  844.32   13.62
  -1   2  -4  250.10    6.96
  -1   2  -4  215.43    7.78
  -1   2  -5  113.06    4.90
  -1   2  -5  100.36    5.99
  -1   2  -6  181.51    6.44
  -1   2  -6  161.61    8.09
  -1   2  -7   63.68    5.77
  -1   2  -8   -0.95    1.33
  -1   2  -9   46.51    5.63
  -1   2 -10   96.31    8.28
  -1   2 -11   79.72    8.19
   1  -1 -12   59.41    6.82
   1  -1 -11   66.05    6.54
   1  -1 -11   61.18    5.97
   1  -1 -10    0.96    1.88
   1  -1 -10    0.33    1.47
   1  -1  -9  136.58    8.09
   1  -1  -9  148.10    8.18
   1  -1  -8   75.73    5.68
   1  -1  -8   83.43    5.89
   1  -1  -7  236.31    8.92
   1  -1  -7  255.28    9.35
  -1   1   6    5.41    0.91
   1  -1  -6    5.13    1.67
   1  -1  -6    6.06    1.83
  -1   1   5  645.87    6.99
   1  -1  -5  640.88   11.75
   1  -1  -5  682.33   12.97
  -1   1   4  375.91    5.23
   1  -1  -4  364.92    7.74
   1  -1  -4  376.71    8.80
  -1   1   3   44.10    1.89
   1  -1  -3   44.08    2.38
   1  -1  -3   41.57    2.75
  -1   1   2    2.42    0.66
   1  -1  -2    2.43    0.81
  -1   1   1  227.43    4.33
   1  -1  -1  226.12    4.56
  -1   1  -1  361.27    6.23
  -1   1  -1  322.59    5.40
  -1   1  -2   38.76    2.31
  -1   1  -2   34.61    2.40
  -1   1  -3   74.31    3.32
  -1   1  -3   67.00    3.66
  -1   1  -4 1060.93   13.01
  -1   1  -4  938.55   14.98
  -1   1  -5  148.51    5.22
  -1   1  -5  131.26    6.38
  -1   1  -6    1.63    0.91
  -1   1  -6    0.11    1.21
  -1   1  -7  118.60    7.19
  -1   1  -8  211.14   10.21
  -1   1  -9  194.80   10.55
  -1   1 -10   46.56    5.73
  -1   1 -11   16.34    4.36
   1   0 -12    0.81    2.54
   1   0 -11   34.40    5.95
   1   0 -10  134.89    8.99
   1   0 -10  148.23    8.67
   1   0  -9   50.78    5.43
   1   0  -9   60.39    5.46
   1   0  -8   -0.55    1.22
   1   0  -8    0.40    1.14
   1   0  -7  177.85    8.23
   1   0  -7  180.98    7.98
   1   0  -6  369.85   10.83
   1   0  -5  752.96   13.91
   1   0  -4   17.05    2.11
   1   0  -3   22.23    2.11
  -1   0   2  454.56    3.40
  -1   0   1  471.22    4.56
  -1   0   0  133.78    2.91
  -1   0  -1   47.47    2.01
  -1   0  -2  473.45    7.01
  -1   0  -2  471.55    7.44
  -1   0  -3  165.46    4.61
  -1   0  -3  153.66    5.11
  -1   0  -4   37.13    2.46
  -1   0  -4   33.13    2.81
  -1   0  -4   35.80    1.92
  -1   0  -5   55.50    4.04
  -1   0  -5   65.96    3.07
   1   0   5   63.35    3.38
  -1   0  -6  195.04    7.98
  -1   0  -6  223.98    6.24
   1   0   6  214.37    6.40
  -1   0  -7  197.73    8.77
  -1   0  -7  217.08    6.86
   1   0   7  218.87    6.82
  -1   0  -8   65.27    5.62
  -1   0  -9    1.45    1.83
  -1   0 -10  100.30    7.89
  -1   0 -11   80.85    7.69
  -1   0 -12   61.63    7.07
   1   1 -11   78.49    7.84
   1   1 -10    6.09    2.81
   1   1  -9  113.33    8.21
   1   1  -9  131.38    7.89
   1   1  -8  227.34   10.61
   1   1  -7  167.97    8.53
   1   1  -6    9.09    2.52
   1   1  -5   48.67    4.01
   1   1  -4  773.02   13.85
   1   1  -3  378.62    8.69
   1   1  -2  468.38    4.16
   1   1  -2  486.67    8.67
   1   1  -1    1.30    0.46
   1   1  -1    1.00    0.60
   1   1   0  852.78    7.78
   1   1   1  571.59    7.16
  -1  -1  -2   22.00    1.68
   1   1   2   22.60    1.70
  -1  -1  -3  157.96    4.87
   1   1   3  144.57    4.41
  -1  -1  -4  769.01   12.09
  -1  -1  -4  778.92    9.30
   1   1   4  743.54   10.61
  -1  -1  -5  314.81    8.69
  -1  -1  -5  330.71    6.92
   1   1   5  328.51    7.58
  -1  -1  -6  216.83    8.05
  -1  -1  -6  223.21    6.41
   1   1   6  219.50    6.57
  -1  -1  -7   -0.29    0.94
  -1  -1  -7    0.04    0.81
   1   1   7    0.47    1.00
  -1  -1  -8   23.24    3.99
  -1  -1  -8   26.26    2.96
  -1  -1  -9  269.68   11.43
  -1  -1 -10   73.36    6.61
  -1  -1 -11    0.87    2.11
  -1  -1 -12   49.26    7.22
   1   2 -11   27.68    5.85
   1   2 -10   96.49    8.49
   1   2  -9  105.07    8.32
   1   2  -8   21.06    4.29
   1   2  -7   60.15    5.55
   1   2  -6  262.11   10.41
   1   2  -5  232.33    9.10
   1   2  -4    0.45    0.40
   1   2  -4    0.06    0.76
   1   2  -3   81.52    2.62
   1   2  -3   77.11    4.49
   1   2  -2  414.70    6.07
   1   2  -2  427.11    9.26
   1   2  -1  274.73    5.22
   1   2  -1  301.96    6.98
   1   2   0   56.53    2.60
   1   2   0   63.92    2.98
   1   2   1   66.88    2.96
   1   2   2  462.09    8.05
  -1  -2  -3 1046.51   12.21
  -1  -2  -3  870.22   10.60
   1   2   3  905.30   11.90
  -1  -2  -4  386.29    8.32
  -1  -2  -4  345.56    7.19
   1   2   4  352.89    7.90
  -1  -2  -5  343.02    8.75
  -1  -2  -5  317.51    7.46
   1   2   5  329.16    8.05
  -1  -2  -6   89.24    5.05
  -1  -2  -6   80.39    4.22
   1   2   6   86.28    4.44
  -1  -2  -7  269.44    9.42
  -1  -2  -7  278.62    8.23
   1   2   7  276.19    8.16
  -1  -2  -8  234.80    9.57
  -1  -2  -8  232.11    8.11
   1   2   8  243.97    8.00
  -1  -2  -9    7.29    2.64
  -1  -2 -10   88.02    6.95
  -1  -2 -11  135.61    9.05
  -1  -2 -12  125.83    9.31
  -1  -2 -13   17.52    4.64
   1   3 -10   23.35    5.28
   1   3  -9   12.99    4.14
   1   3  -8  125.53    8.91
   1   3  -7  183.02   10.01
   1   3  -6   52.09    5.33
   1   3  -5   33.61    4.11
   1   3  -4  227.77    5.49
   1   3  -4  222.14    8.86
   1   3  -3  266.01    6.08
   1   3  -3  260.99    8.78
   1   3  -2  402.40    7.60
   1   3  -2  399.53    9.95
   1   3  -1   21.20    1.99
   1   3  -1   24.94    2.40
   1   3   0  143.00    4.85
   1   3   0  162.06    5.34
   1   3   1  199.31    5.89
   1   3   1  233.58    5.96
   1   3   2  103.03    4.47
   1   3   3    1.29    0.99
  -1  -3  -4  449.34    9.39
   1   3   4  465.11    9.95
  -1  -3  -5  389.40    9.09
  -1  -3  -5  335.73    8.56
   1   3   5  356.46    9.11
  -1  -3  -6  317.72    9.02
  -1  -3  -6  299.48    8.57
   1   3   6  295.05    8.64
  -1  -3  -7    2.47    1.32
  -1  -3  -7    1.99    1.36
   1   3   7    1.39    1.28
  -1  -3  -8   54.01    4.71
  -1  -3  -8   54.16    4.38
   1   3   8   47.46    3.91
  -1  -3  -9  272.29   10.70
  -1  -3  -9  258.68    9.57
  -1  -3 -10   84.60    6.59
  -1  -3 -11    7.87    2.94
  -1  -3 -12   10.57    3.47
  -1  -3 -13  103.70    8.68
   1   4  -9   71.44    7.50
   1   4  -8   26.30    5.15
   1   4  -7   19.89    4.40
   1   4  -6   82.75    6.71
   1   4  -5  277.26   11.33
   1   4  -4  167.88    8.32
   1   4  -3    2.09    1.02
   1   4  -3    2.43    1.49
   1   4  -2  154.49    5.66
   1   4  -2  165.34    7.10
   1   4  -1  510.97   10.27
   1   4  -1  559.41   11.91
   1   4   0  266.92    7.56
   1   4   0  286.63    7.92
   1   4   1   31.77    2.86
   1   4   1   34.57    2.72
   1   4   2  356.54    9.14
   1   4   3  357.39    9.39
   1   4   4  349.43    9.55
  -1  -4  -5   45.59    3.73
   1   4   5   51.88    3.99
  -1  -4  -6   49.11    3.70
  -1  -4  -6   45.80    4.01
   1   4   6   43.74    3.82
  -1  -4  -7  351.14   10.11
  -1  -4  -7  320.53   10.15
   1   4   7  332.82   10.24
  -1  -4  -8  332.93   10.62
  -1  -4  -8  295.73   10.20
   1   4   8  311.60   10.19
  -1  -4  -9   71.74    5.52
  -1  -4  -9   59.25    5.13
   1   4   9   65.12    5.07
  -1  -4 -10   22.39    4.14
  -1  -4 -10   20.46    3.87
  -1  -4 -11  113.38    7.82
  -1  -4 -12   88.21    7.46
  -1  -4 -13   10.51    3.50
   1   5  -8   47.09    7.10
   1   5  -7   26.27    5.12
   1   5  -6   61.17    6.11
   1   5  -5    8.83    2.94
   1   5  -4   98.76    6.88
   1   5  -3  308.23    8.93
   1   5  -3  294.13   10.87
   1   5  -2  173.52    6.82
   1   5  -2  172.99    7.90
   1   5  -1   -0.09    0.87
   1   5  -1   -0.32    0.97
   1   5   0  112.81    5.64
   1   5   0  120.47    5.75
   1   5   1  831.44   15.24
   1   5   1  949.94   14.85
   1   5   2   24.47    2.95
   1   5   2   25.51    2.62
   1   5   3    3.46    1.53
   1   5   4   81.48    5.22
   1   5   5  273.60    9.53
  -1  -5  -6  284.16    9.91
   1   5   6  328.36   10.70
  -1  -5  -7   98.14    6.24
   1   5   7  108.49    6.46
  -1  -5  -8   26.67    3.29
  -1  -5  -8   21.48    3.82
   1   5   8   26.47    4.08
  -1  -5  -9  178.90    8.26
  -1  -5  -9  161.97    8.50
   1   5   9  182.76    8.65
  -1  -5 -10  230.68   10.02
  -1  -5 -10  198.66    9.66
  -1  -5 -11   29.60    4.98
   1   6  -7    0.46    1.98
   1   6  -6   19.40    4.60
   1   6  -5  159.75    9.73
   1   6  -4  126.49    8.25
   1   6  -3    0.72    1.64
   1   6  -2   22.23    3.39
   1   6  -2   27.88    4.30
   1   6  -1  437.79   12.06
   1   6  -1  459.77   12.83
   1   6   0  193.37    8.13
   1   6   0  209.52    8.19
   1   6   1   28.18    3.99
   1   6   1   31.74    3.27
   1   6   2    1.91    1.55
   1   6   2    2.78    1.30
   1   6   3  192.06    8.39
   1   6   3  238.86    7.52
   1   6   4  268.36   10.04
   1   6   5   65.17    5.16
   1   6   6   29.00    4.27
  -1  -6  -7  134.62    7.85
   1   6   7  144.56    7.86
  -1  -6  -8  169.89    9.02
   1   6   8  179.28    8.94
  -1  -6  -9  112.58    7.53
   1   6   9  117.22    7.42
  -1  -6 -10   18.99    4.26
   1   6  10   22.04    4.01
  -1  -6 -11   18.00    4.26
   1   7  -6   49.92    7.38
   1   7  -5    4.63    2.69
   1   7  -4   64.49    6.42
   1   7  -3  151.61    9.01
   1   7  -2  192.04    8.77
   1   7  -2  202.05    9.74
   1   7  -1   12.33    2.92
   1   7  -1    9.98    2.86
   1   7   0    6.96    2.39
   1   7   0    9.67    2.57
   1   7   1  213.70    9.41
   1   7   1  212.96    8.48
   1   7   2  168.52    8.46
   1   7   2  192.91    7.64
   1   7   3  244.59   10.24
   1   7   3  277.33    8.77
   1   7   4    9.50    2.82
   1   7   5  254.08   10.73
   1   7   6  282.63   11.50
   1   7   7  131.15    8.01
  -1  -7  -8    2.94    2.25
   1   7   8    1.45    1.42
  -1  -7  -9   45.24    5.49
   1   7   9   47.85    5.12
  -1  -7 -10   71.28    6.87
   1   7  10   77.81    6.62
  -1  -7 -11   35.28    5.79
  -1  -7 -12    0.24    2.28
   1   8  -5  131.35    9.85
   1   8  -4   43.58    6.54
   1   8  -3    4.29    2.50
   1   8  -2   15.39    3.78
   1   8  -1  125.05    7.82
   1   8  -1  130.51    7.92
   1   8   0  187.36    9.54
   1   8   0  186.54    8.94
   1   8   1   64.36    5.81
   1   8   1   78.41    5.77
   1   8   2    9.10    2.83
   1   8   3   49.71    5.22
   1   8   4  319.37   12.76
   1   8   5  133.57    8.40
   1   8   6    6.73    2.56
   1   8   7   63.10    6.09
   1   8   8   99.63    7.62
   1   8   9   77.56    6.95
   1   8  10    4.04    2.33
  -1  -8 -11   32.76    5.89
   1   8  11   49.78    5.78
  -1  -8 -12   90.96    8.43
   1   9  -3   67.75    6.88
   1   9  -2  113.36    8.39
   1   9  -1   84.42    6.97
   1   9   0   -0.59    1.44
   1   9   1   94.08    7.41
   1   9   2  106.62    7.93
   1   9   3  180.70   10.22
   1   9   4   -0.17    1.41
   1   9   5   20.14    4.37
   1   9   6   74.75    6.93
   1   9   7   51.96    5.87
   1   9   8    4.50    2.53
   1   9   9   41.37    6.53
   1   9  10  161.51   10.53
   1   9  11   43.33    6.66
   1  10   0  124.39    8.99
   1  10   1  103.59    8.29
   1  10   2    4.39    2.64
   1  10   3   30.57    5.52
   1  10   4  106.01    8.50
   1  10   5   67.78    7.02
   1  10   6    4.95    2.63
   1  10   7   15.83    4.11
   1  10   8  114.29    9.12
   1  10   9  103.75    8.82
   1  11   2   87.13    8.22
   1  11   3   84.87    8.13
   1  11   4    8.41    3.65
   1  11   5   26.08    5.80
   1  11   6   71.47    7.69
   1  11   7   80.98    8.27
  -2  10   8   21.29    4.74
   2 -10  -8   24.34    5.71
  -2  10   7    4.88    2.67
  -2  10   6   69.31    7.16
  -2  10   5   88.85    8.05
  -2  10   4   21.26    4.87
  -2  10   3    0.40    1.76
  -2  10   2   58.47    6.77
  -2  10   1  125.02    9.64
  -2  10   0   50.39    7.31
  -2   9   9    0.03    1.51
   2  -9  -9   -1.13    2.36
  -2   9   8   48.22    5.75
   2  -9  -8   44.94    7.08
  -2   9   7   83.88    7.41
   2  -9  -7   72.42    7.42
  -2   9   6   70.29    6.79
  -2   9   5    1.83    1.97
  -2   9   4   91.87    7.69
  -2   9   3  140.06    9.48
  -2   9   2   55.32    6.20
  -2   9   1    0.25    1.48
  -2   9   0   70.10    6.89
  -2   9  -1  113.29    8.71
  -2   9  -2   93.05    8.02
  -2   9  -3    6.00    2.73
   2  -8 -10   29.60    5.91
   2  -8  -9   83.79    8.02
  -2   8   8   88.96    7.15
   2  -8  -8   73.65    7.28
  -2   8   7   21.63    4.26
   2  -8  -7   20.07    4.65
  -2   8   6   44.19    5.12
   2  -8  -6   43.09    6.23
  -2   8   5  166.51    9.64
   2  -8  -5  153.12    9.38
  -2   8   4  108.31    7.77
  -2   8   3    3.08    1.94
  -2   8   2  123.31    8.38
  -2   8   1  147.10    9.17
  -2   8   0   85.94    7.12
  -2   8  -1    6.04    2.45
  -2   8  -2    6.11    2.57
  -2   8  -3   92.83    7.62
   2  -7 -11  108.15    9.28
   2  -7 -10   71.67    7.36
   2  -7  -9    4.18    2.70
  -2   7   8   58.31    5.45
   2  -7  -8   53.48    6.13
  -2   7   7  110.87    7.37
   2  -7  -7  114.04    8.30
  -2   7   6  326.53   12.43
   2  -7  -6  281.70   12.20
  -2   7   5   28.62    4.49
   2  -7  -5   22.10    4.33
  -2   7   4   63.02    5.64
   2  -7  -4   53.39    5.54
  -2   7   3  176.37    9.16
   2  -7  -3  166.82    8.81
  -2   7   2  240.87   10.75
  -2   7   1   29.06    4.63
  -2   7   0   43.83    4.83
  -2   7  -1  131.60    8.15
  -2   7  -2  214.78   10.50
  -2   7  -3  139.25    8.55
  -2   7  -4    2.26    1.95
  -2   7  -5   89.11    7.38
  -2   7  -6   30.29    5.61
   2  -6 -12   84.52    8.34
   2  -6 -11   10.54    3.71
   2  -6 -10   33.24    5.84
   2  -6  -9  113.17    8.44
  -2   6   8   85.14    6.01
   2  -6  -8   96.71    7.59
  -2   6   7    7.02    2.24
   2  -6  -7    5.42    2.53
  -2   6   6  298.18   10.94
  -2   6   5   99.84    6.45
   2  -6  -5   89.53    6.63
  -2   6   4  158.84    8.00
   2  -6  -4  163.73    8.40
  -2   6   3   24.55    3.94
   2  -6  -3   22.87    3.81
  -2   6   2    0.83    1.19
   2  -6  -2    1.02    1.58
  -2   6   1  222.42    9.58
  -2   6   0  376.50   12.56
  -2   6  -1   68.85    5.57
  -2   6  -2   11.02    2.79
  -2   6  -2    5.95    2.07
  -2   6  -3  452.47   14.25
  -2   6  -3  369.57   11.96
  -2   6  -4  115.50    7.42
  -2   6  -4   98.80    6.92
  -2   6  -5   37.45    4.49
  -2   6  -5   25.68    4.70
  -2   6  -6    3.59    2.43
  -2   6  -7   42.56    6.49
   2  -5 -12   11.83    4.13
   2  -5 -11   70.22    7.12
   2  -5 -10  128.49    9.11
   2  -5  -9    7.47    2.84
   2  -5  -8   85.70    6.89
  -2   5   7  228.75    8.81
   2  -5  -7  229.85   10.51
  -2   5   6  264.28    9.42
   2  -5  -6  278.89   11.02
  -2   5   5   87.77    5.55
   2  -5  -5   83.47    5.92
  -2   5   4   -0.31    0.86
   2  -5  -4   -0.01    1.21
  -2   5   3  132.21    6.71
   2  -5  -3  124.84    6.56
  -2   5   2  179.74    7.84
   2  -5  -2  167.70    7.23
  -2   5   1  196.71    8.28
   2  -5  -1  171.64    7.14
  -2   5   0   -0.68    0.79
  -2   5   0    0.24    0.78
  -2   5  -1  187.13    8.29
  -2   5  -1  169.31    6.30
  -2   5  -2  459.65   13.11
  -2   5  -2  380.07   10.40
  -2   5  -3   20.23    3.53
  -2   5  -3   24.46    3.71
  -2   5  -4    3.84    1.80
  -2   5  -4    2.04    1.71
  -2   5  -5   82.06    5.98
  -2   5  -5   75.01    6.21
  -2   5  -6   73.56    6.59
  -2   5  -7   64.54    6.61
  -2   5  -8   -0.59    1.85
   2  -4 -12   42.23    6.59
   2  -4 -11    3.41    2.37
   2  -4 -10   40.06    6.12
   2  -4  -9  175.79    9.82
   2  -4  -8  242.22   10.87
  -2   4   7  101.69    5.32
   2  -4  -7  112.35    7.16
  -2   4   6    1.47    1.17
   2  -4  -6   -0.36    1.28
  -2   4   5  223.91    7.79
   2  -4  -5  231.51    9.10
  -2   4   4  553.50   12.21
   2  -4  -4  559.90   13.32
  -2   4   3  294.81    9.00
   2  -4  -3  279.36    8.94
  -2   4   2    5.49    1.64
   2  -4  -2    4.77    1.56
  -2   4   1  568.85   12.69
   2  -4  -1  499.79   10.69
  -2   4   0  232.27    8.26
  -2   4   0  224.42    5.52
   2  -4   0  222.41    6.91
  -2   4  -1  181.23    7.45
  -2   4  -1  153.42    5.47
  -2   4  -2   15.30    2.79
  -2   4  -2   14.20    2.45
  -2   4  -3  115.60    6.27
  -2   4  -3  101.10    5.70
  -2   4  -4  143.96    7.14
  -2   4  -4  116.19    6.61
  -2   4  -5  194.46    8.53
  -2   4  -5  150.76    8.16
  -2   4  -6   45.29    4.33
  -2   4  -6   42.73    4.86
  -2   4  -7    2.17    2.05
  -2   4  -8  182.91   10.97
  -2   4  -9   62.47    7.03
   2  -3 -12    1.23    1.86
   2  -3 -11   98.43    7.99
   2  -3 -10  141.24    9.15
   2  -3  -9   54.46    5.65
   2  -3  -8   -1.08    0.97
   2  -3  -7  101.90    5.15
   2  -3  -7  102.33    6.64
  -2   3   6  271.64    7.45
   2  -3  -6  261.69    7.14
   2  -3  -6  292.56   10.42
  -2   3   5  137.59    5.38
   2  -3  -5  134.99    4.42
   2  -3  -5  147.33    7.03
  -2   3   4    1.95    1.00
   2  -3  -4    0.56    1.03
  -2   3   3  280.05    7.76
   2  -3  -3  279.00    8.36
  -2   3   2  644.43   11.90
   2  -3  -2  635.62   11.70
   2  -3  -1  296.08    7.45
  -2   3   0   15.99    2.47
  -2   3   0   15.36    1.44
   2  -3   0   17.61    1.95
  -2   3  -1  108.12    5.29
  -2   3  -1  100.14    4.10
  -2   3  -2  241.66    8.02
  -2   3  -2  214.30    6.81
  -2   3  -3  260.65    8.59
  -2   3  -3  231.12    7.89
  -2   3  -4   13.96    2.59
  -2   3  -4   10.34    2.52
  -2   3  -5   57.62    4.42
  -2   3  -5   54.37    4.90
  -2   3  -6  157.57    7.31
  -2   3  -6  135.27    8.02
  -2   3  -7  248.51   11.44
  -2   3  -8   11.73    3.46
  -2   3  -9   18.57    4.58
  -2   3 -10  112.79    9.43
   2  -2 -12  193.57   11.62
   2  -2 -11   98.03    7.97
   2  -2 -10    3.11    2.28
   2  -2 -10    0.30    1.72
   2  -2  -9  127.26    7.44
   2  -2  -9  123.91    8.13
   2  -2  -8  139.22    7.19
   2  -2  -8  150.27    8.44
   2  -2  -7   97.00    5.47
   2  -2  -7  110.98    6.87
   2  -2  -6    0.96    1.05
   2  -2  -6    0.18    0.99
  -2   2   5  323.07    6.84
   2  -2  -5  321.25    7.78
   2  -2  -5  338.63   10.27
  -2   2   4  180.07    5.26
   2  -2  -4  176.32    5.01
   2  -2  -4  178.67    6.95
  -2   2   3  714.55   10.63
   2  -2  -3  743.78    8.50
   2  -2  -3  709.91   12.70
  -2   2   2  503.71    9.19
   2  -2  -2  489.81    9.63
  -2   2   1    3.20    1.07
   2  -2  -1    2.75    0.95
  -2   2   0  341.43    8.11
  -2   2   0  356.55    5.93
   2  -2   0  341.17    6.49
  -2   2  -1  115.75    4.92
  -2   2  -1  111.53    4.05
   2  -2   1  101.87    3.21
  -2   2  -2    2.13    1.00
  -2   2  -2    1.53    0.93
  -2   2  -3  108.77    5.19
  -2   2  -3   99.58    4.99
  -2   2  -4  487.85   11.24
  -2   2  -4  433.31   11.26
  -2   2  -5  259.96    8.54
  -2   2  -5  233.23    9.08
  -2   2  -6   11.03    2.36
  -2   2  -6    9.24    2.66
  -2   2  -7   12.63    2.63
  -2   2  -7   13.93    3.35
  -2   2  -8   96.60    7.49
  -2   2  -9  106.58    8.25
  -2   2 -10   39.41    6.45
  -2   2 -11   -0.48    2.19
   2  -1 -12    3.10    2.71
   2  -1 -12    2.41    2.39
   2  -1 -11   73.78    7.02
   2  -1 -11   80.37    7.28
   2  -1 -10  132.27    8.60
   2  -1 -10  126.74    8.65
   2  -1  -9  122.46    7.77
   2  -1  -9  137.41    8.45
   2  -1  -8   38.65    4.27
   2  -1  -8   40.28    4.64
   2  -1  -7   60.18    4.81
   2  -1  -7   65.85    5.37
   2  -1  -6  423.56   11.02
   2  -1  -6  429.88   12.33
  -2   1   5  472.60    6.06
   2  -1  -5  483.97   10.65
   2  -1  -5  475.54   12.06
  -2   1   4  127.00    3.50
   2  -1  -4  135.74    5.08
   2  -1  -4  124.14    5.77
  -2   1   3   26.96    1.82
   2  -1  -3   33.57    2.32
   2  -1  -3   26.48    2.53
  -2   1   2  137.81    4.15
   2  -1  -2  152.70    4.16
   2  -1  -2  139.53    5.08
  -2   1   1  787.12   10.36
   2  -1  -1  781.68   10.45
  -2   1   0  140.71    4.68
   2  -1   0  146.63    3.91
  -2   1  -1  154.60    5.20
  -2   1  -1  165.98    4.72
  -2   1  -2  595.13   10.60
  -2   1  -2  616.80   10.19
  -2   1  -3  467.83    9.89
  -2   1  -3  432.75    9.63
  -2   1  -4  116.45    5.26
  -2   1  -4  113.97    5.62
  -2   1  -5    4.37    1.53
  -2   1  -5    4.97    1.85
  -2   1  -6  298.72    9.09
  -2   1  -6  264.87   10.06
  -2   1  -7  233.46    8.37
  -2   1  -7  205.80    9.64
  -2   1  -8   99.74    7.28
  -2   1  -9    3.12    2.37
  -2   1 -10   35.15    5.99
  -2   1 -11   93.93    8.60
   2   0 -11   51.43    7.32
   2   0 -11   64.08    6.61
   2   0 -10    5.87    2.90
   2   0 -10    7.09    2.74
   2   0  -9   94.91    7.17
   2   0  -9   91.44    7.07
   2   0  -8   17.25    3.64
   2   0  -8   17.39    3.72
   2   0  -7  354.04   11.78
   2   0  -7  358.94   12.17
   2   0  -6   82.09    5.46
   2   0  -5   23.99    3.35
   2   0  -4  413.51    9.80
  -2   0   3  487.47    5.65
   2   0  -3  539.55   10.09
  -2   0   2    1.27    0.60
   2   0  -2    1.04    0.70
  -2   0   1   38.33    2.15
   2   0  -1   48.38    2.64
  -2   0   0 1430.74   13.55
  -2   0  -1   14.04    1.69
  -2   0  -2  206.42    5.96
  -2   0  -2  215.74    5.97
  -2   0  -3    9.07    1.71
  -2   0  -3    9.07    1.77
  -2   0  -4  387.38    9.13
  -2   0  -4  366.84    9.48
  -2   0  -5  549.97   11.43
  -2   0  -5  511.21   12.25
  -2   0  -6  278.19    9.88
   2   0   6  310.46    9.04
  -2   0  -7   11.32    2.89
   2   0   7   15.75    2.77
  -2   0  -8  148.08    8.56
   2   0   8  161.43    7.16
  -2   0  -9  287.80   12.46
  -2   0 -10   61.95    6.36
  -2   0 -11    0.98    2.04
  -2   0 -12   17.53    4.72
   2   1 -11   33.96    6.14
   2   1 -11   35.27    5.88
   2   1 -10   58.65    6.60
   2   1 -10   68.44    6.50
   2   1  -9  124.49    8.69
   2   1  -9  132.68    8.48
   2   1  -8  153.78    8.96
   2   1  -7   -0.65    1.12
   2   1  -6  206.71    9.02
   2   1  -5  302.62   10.01
   2   1  -4   80.85    4.85
   2   1  -3   35.12    1.46
   2   1  -3   42.84    3.38
   2   1  -2  718.42    7.64
   2   1  -2  803.62   12.58
   2   1  -1  769.44    8.96
   2   1  -1  941.12   12.58
   2   1   0  146.07    4.34
   2   1   1  507.26    8.64
   2   1   2  110.97    4.39
  -2  -1  -3  336.51    8.13
   2   1   3  305.13    7.67
  -2  -1  -4  289.81    8.26
   2   1   4  272.72    7.65
  -2  -1  -5    2.54    1.39
  -2  -1  -5    0.71    0.64
   2   1   5    0.92    0.98
  -2  -1  -6  125.84    6.52
  -2  -1  -6  118.34    4.07
   2   1   6  125.70    5.83
  -2  -1  -7  302.01   10.77
   2   1   7  306.79    9.42
  -2  -1  -8  418.36   13.57
   2   1   8  450.05   11.83
  -2  -1  -9   32.53    5.04
  -2  -1 -10   10.95    3.46
  -2  -1 -11   81.78    7.58
  -2  -1 -12   69.37    7.42
   2   2 -10   35.72    6.34
   2   2 -10   39.13    6.09
   2   2  -9    3.76    2.42
   2   2  -8  104.57    7.85
   2   2  -7  218.72   10.53
   2   2  -6   49.00    4.87
   2   2  -5   48.62    4.52
   2   2  -4  313.74   10.18
   2   2  -3  290.67    4.91
   2   2  -2  302.36    5.68
   2   2  -2  346.73    9.19
   2   2  -1   32.37    2.15
   2   2  -1   38.01    2.99
   2   2   0  304.04    6.69
   2   2   1  476.11    8.87
  -2  -2  -4  351.27    9.00
   2   2   4  317.12    8.53
  -2  -2  -5  764.46   14.27
  -2  -2  -5  637.82    9.78
   2   2   5  702.18   13.26
  -2  -2  -6  217.07    8.27
  -2  -2  -6  187.83    5.79
   2   2   6  205.84    7.60
  -2  -2  -7   58.67    4.92
  -2  -2  -7   43.72    3.30
   2   2   7   50.15    4.12
  -2  -2  -8   36.36    4.34
   2   2   8   39.74    3.83
  -2  -2  -9   42.25    4.80
   2   2   9   42.27    4.24
  -2  -2 -10  172.50    9.82
  -2  -2 -11   25.18    4.97
  -2  -2 -12   -0.33    1.84
   2   3 -10   70.39    7.82
   2   3  -9  116.96    9.19
   2   3  -8   38.84    5.99
   2   3  -7    1.44    1.86
   2   3  -6  103.00    7.30
   2   3  -5  127.16    7.60
   2   3  -4   22.98    3.73
   2   3  -3    1.83    0.81
   2   3  -3    2.63    1.47
   2   3  -2   68.62    3.28
   2   3  -2   71.59    4.73
   2   3  -1  534.83    9.41
   2   3  -1  581.64   12.21
   2   3   0  681.91   11.11
   2   3   0  771.83   13.28
   2   3   1   62.41    3.66
   2   3   2  252.62    7.42
   2   3   3  705.78   12.86
   2   3   4  541.92   11.75
  -2  -3  -5   16.73    2.72
   2   3   5   14.24    2.55
  -2  -3  -6   55.39    4.33
  -2  -3  -6   51.08    3.68
   2   3   6   52.55    4.20
  -2  -3  -7  178.70    8.03
  -2  -3  -7  146.41    6.16
   2   3   7  167.79    7.48
  -2  -3  -8  179.51    8.63
  -2  -3  -8  157.45    6.71
   2   3   8  172.43    7.84
  -2  -3  -9   44.44    4.91
   2   3   9   50.16    4.56
  -2  -3 -10   -0.72    1.35
  -2  -3 -11  100.02    7.86
  -2  -3 -12  156.93   10.26
  -2  -3 -13   73.46    7.65
   2   4  -9   -0.13    2.20
   2   4  -8   64.87    7.07
   2   4  -7   57.16    6.32
   2   4  -6  153.48    9.36
   2   4  -5    4.96    2.43
   2   4  -4   85.05    6.35
   2   4  -3  281.91    7.25
   2   4  -3  287.97   10.66
   2   4  -2  234.00    6.89
   2   4  -2  243.03    9.21
   2   4  -1   57.60    3.62
   2   4  -1   61.54    4.51
   2   4   0   56.75    3.73
   2   4   0   68.50    4.45
   2   4   1  456.33   10.53
   2   4   1  525.51   11.52
   2   4   2  457.91   10.86
   2   4   3   56.06    4.10
   2   4   4    1.93    1.27
   2   4   5  102.48    5.79
   2   4   6  181.90    7.91
  -2  -4  -7   86.46    5.64
  -2  -4  -7   65.59    4.71
   2   4   7   75.33    5.43
  -2  -4  -8   14.47    3.05
  -2  -4  -8    9.00    2.52
   2   4   8   11.94    2.81
  -2  -4  -9  133.97    7.83
   2   4   9  129.47    7.36
  -2  -4 -10  170.22    9.34
   2   4  10  145.79    8.01
  -2  -4 -11   54.73    5.88
  -2  -4 -12    2.17    2.04
  -2  -4 -13  106.13    8.80
   2   5  -8   59.47    7.00
   2   5  -7   17.26    4.33
   2   5  -6   63.46    6.58
   2   5  -5  157.27    9.45
   2   5  -4  231.84   10.83
   2   5  -3   17.45    3.63
   2   5  -2   92.40    4.97
   2   5  -2   95.40    6.30
   2   5  -1  394.87   10.32
   2   5  -1  426.39   12.33
   2   5   0  344.43    9.87
   2   5   0  391.60   11.27
   2   5   1   58.41    4.29
   2   5   1   62.31    4.42
   2   5   2   14.40    2.72
   2   5   2   16.44    2.76
   2   5   3  275.34    9.46
   2   5   4  235.85    9.03
   2   5   5  152.69    7.50
   2   5   6    6.81    2.28
   2   5   7  117.97    7.04
   2   5   8  280.53   10.96
  -2  -5  -9  120.06    7.34
  -2  -5  -9   95.74    6.43
   2   5   9  102.05    6.88
  -2  -5 -10    1.95    1.88
   2   5  10    1.02    1.54
  -2  -5 -11   63.92    6.15
  -2  -5 -12   95.52    7.79
  -2  -5 -13   41.80    6.46
   2   6  -7   81.19    8.10
   2   6  -6  110.01    8.84
   2   6  -5    9.47    3.26
   2   6  -4    3.54    2.01
   2   6  -3  154.13    8.95
   2   6  -2   94.96    5.62
   2   6  -2   90.88    6.62
   2   6  -1  111.91    6.24
   2   6  -1  118.22    7.17
   2   6   0   56.25    4.58
   2   6   0   63.22    5.04
   2   6   1  237.24    9.22
   2   6   1  255.63    9.39
   2   6   2  354.85   11.40
   2   6   2  412.89   11.53
   2   6   3  168.36    7.28
   2   6   4    3.08    1.76
   2   6   5  131.13    7.49
   2   6   6  151.06    8.13
   2   6   7   78.78    6.16
   2   6   8    0.76    1.31
   2   6   9   93.35    6.94
  -2  -6 -10  147.02    8.63
   2   6  10  174.29    9.57
   2   6  11  111.25    7.95
   2   7  -6    0.82    2.03
   2   7  -5   64.61    6.90
   2   7  -4   88.65    7.68
   2   7  -3   11.16    3.36
   2   7  -2   50.54    5.46
   2   7  -1  279.09   10.52
   2   7  -1  271.32   11.35
   2   7   0  283.97   10.76
   2   7   0  307.51   11.52
   2   7   1  146.27    7.92
   2   7   1  173.25    8.35
   2   7   2    6.89    2.31
   2   7   2    7.11    2.20
   2   7   3   58.22    5.28
   2   7   3   70.64    5.14
   2   7   4  139.50    8.10
   2   7   4  167.41    7.66
   2   7   5  111.82    7.37
   2   7   6   39.80    4.66
   2   7   7    0.18    1.31
   2   7   8  163.88    9.37
   2   7   9  110.34    7.94
   2   7  10    0.87    1.79
   2   7  11   24.77    4.86
   2   8  -4   -0.25    1.70
   2   8  -3   74.40    7.15
   2   8  -2  210.91   11.14
   2   8  -1  121.02    7.58
   2   8  -1  126.25    8.33
   2   8   0    3.89    2.08
   2   8   0    1.15    1.67
   2   8   1   53.81    5.35
   2   8   1   68.20    5.89
   2   8   2  133.92    8.25
   2   8   2  138.55    7.71
   2   8   3  120.83    8.00
   2   8   3  142.43    7.58
   2   8   4    8.94    2.87
   2   8   4    9.47    2.63
   2   8   5   61.33    5.99
   2   8   6   52.54    5.56
   2   8   7  285.55   12.78
   2   8   8    8.19    3.02
   2   8   9   16.91    4.12
   2   8  10  116.92    8.76
   2   8  11   92.57    8.01
   2   9  -3   69.63    7.30
   2   9  -2    2.77    2.34
   2   9  -1   38.78    6.02
   2   9   0   56.84    5.92
   2   9   0   50.88    5.54
   2   9   1   43.28    5.24
   2   9   1   48.02    5.23
   2   9   2    0.94    1.73
   2   9   3   21.79    4.46
   2   9   4  130.66    8.94
   2   9   5  169.01   10.20
   2   9   6   43.50    6.44
   2   9   7   12.17    3.73
   2   9   8  157.40   10.25
   2   9   9  126.90    9.41
   2   9  10   12.24    3.77
   2   9  11    7.44    3.14
   2  10   1   14.31    3.86
   2  10   2   78.85    7.39
   2  10   3  149.30   10.05
   2  10   4   33.15    5.79
   2  10   5    6.46    3.04
   2  10   6   77.92    7.56
   2  10   7  116.33    9.24
   2  10   8   19.79    4.76
   2  10   9    4.47    2.73
   2  11   3    1.04    2.49
   2  11   4   75.21    7.81
   2  11   5   90.01    8.62
   2  11   6   25.78    5.73
  -3  10   6   51.77    7.61
  -3  10   5    0.20    1.76
  -3  10   4   19.18    4.75
  -3  10   3   83.52    8.21
  -3  10   2   67.96    7.50
  -3  10   1    4.70    2.76
  -3   9   8   55.99    6.29
   3  -9  -8   55.58    8.06
  -3   9   7    0.59    1.55
   3  -9  -7    0.43    2.24
  -3   9   6   43.75    6.60
   3  -9  -6   45.85    7.01
  -3   9   5   95.01    8.09
   3  -9  -5   87.13    7.99
  -3   9   4   83.90    7.65
  -3   9   3   20.94    4.70
  -3   9   2   23.27    4.95
  -3   9   1  125.35    9.36
  -3   9   0  111.33    8.98
  -3   9  -1   38.26    6.28
  -3   9  -2    3.20    2.61
   3  -8 -10   19.00    5.03
   3  -8  -9    8.99    3.73
  -3   8   8   18.88    4.11
   3  -8  -8   16.61    4.47
  -3   8   7  112.14    8.13
   3  -8  -7  111.18    8.80
  -3   8   6  112.28    8.19
   3  -8  -6  100.51    8.13
  -3   8   5    7.71    2.92
   3  -8  -5    7.65    3.31
  -3   8   4   48.44    5.53
   3  -8  -4   45.55    5.65
  -3   8   3  108.37    8.07
  -3   8   2  305.65   13.52
  -3   8   1   15.08    3.98
  -3   8   0    8.18    3.18
  -3   8  -1   43.76    5.46
  -3   8  -2  105.14    8.29
  -3   8  -3   53.54    6.19
  -3   8  -4    1.76    2.05
   3  -7 -10   10.51    3.83
   3  -7  -9   34.98    6.08
   3  -7  -8   98.83    8.34
  -3   7   7   29.88    4.80
   3  -7  -7   31.70    5.45
  -3   7   6   29.56    4.71
   3  -7  -6   27.05    4.99
  -3   7   5  165.92    9.19
   3  -7  -5  155.70    9.22
   3  -7  -4  271.16   11.68
  -3   7   3  157.83    9.09
   3  -7  -3  147.81    8.55
  -3   7   2    6.50    2.38
   3  -7  -2    5.93    2.52
  -3   7   1   44.54    5.10
  -3   7   0   80.31    6.77
  -3   7  -1   11.93    3.32
  -3   7  -2   -0.27    1.45
  -3   7  -3   62.05    6.17
  -3   7  -4  151.05    9.58
  -3   7  -5   59.56    6.26
   3  -6 -11   72.82    7.77
   3  -6 -10   87.07    8.03
   3  -6  -9   13.44    3.86
   3  -6  -8   19.47    4.47
  -3   6   7  150.18    8.12
   3  -6  -7  140.89    9.09
  -3   6   6  354.52   12.35
   3  -6  -6  359.86   13.71
  -3   6   5  154.45    8.27
   3  -6  -5  160.65    8.89
  -3   6   4   -0.05    1.10
   3  -6  -4    1.90    1.79
  -3   6   3   50.42    4.93
   3  -6  -3   48.63    4.92
  -3   6   2  262.53   10.91
   3  -6  -2  245.12    9.79
  -3   6   1   53.81    5.13
   3  -6  -1   50.31    4.73
  -3   6   0    7.10    2.47
  -3   6  -1  128.20    7.94
  -3   6  -2  164.28    9.10
  -3   6  -3  147.15    8.79
  -3   6  -4    7.34    2.68
  -3   6  -5   23.48    4.54
  -3   6  -5   22.52    4.50
  -3   6  -6   99.01    7.89
  -3   6  -7   47.05    6.93
   3  -5 -11   33.07    6.23
   3  -5 -10   20.56    4.76
   3  -5  -9   56.30    6.27
   3  -5  -8  283.34   12.76
   3  -5  -7   79.27    6.69
  -3   5   6    5.36    1.98
   3  -5  -6    5.82    2.51
  -3   5   5   65.94    5.06
   3  -5  -5   69.58    5.76
  -3   5   4  163.65    7.85
   3  -5  -4  175.70    8.42
  -3   5   3  132.50    7.17
   3  -5  -3  114.59    6.57
  -3   5   2    1.21    1.38
   3  -5  -2    3.07    1.76
  -3   5   1  153.98    7.85
   3  -5  -1  140.50    6.77
  -3   5   0  176.19    8.52
   3  -5   0  171.60    7.03
  -3   5  -1  219.84    9.63
  -3   5  -2   64.44    5.45
  -3   5  -2   68.45    4.67
  -3   5  -3  212.48    9.86
  -3   5  -3  196.26    8.45
  -3   5  -4  169.78    9.00
  -3   5  -4  154.58    8.14
  -3   5  -5   88.13    6.74
  -3   5  -5   80.13    6.43
  -3   5  -6   26.85    4.66
  -3   5  -6   25.07    4.64
  -3   5  -7   26.67    5.13
  -3   5  -8   69.86    7.13
   3  -4 -11   58.09    6.72
   3  -4 -10  140.61    9.69
   3  -4  -9  159.50    9.86
   3  -4  -8   10.80    3.31
   3  -4  -7   52.22    5.30
  -3   4   6  206.58    7.85
   3  -4  -6  205.26    9.69
  -3   4   5   94.55    5.46
   3  -4  -5   93.50    6.29
  -3   4   4    0.13    0.95
   3  -4  -4    0.52    1.24
  -3   4   3   97.60    5.67
   3  -4  -3   94.66    5.74
  -3   4   2  394.84   11.32
   3  -4  -2  410.88   10.87
  -3   4   1   77.97    5.23
   3  -4  -1   72.70    4.56
  -3   4   0  193.83    8.27
  -3   4   0  198.03    5.58
   3  -4   0  180.98    6.57
  -3   4  -1   13.38    2.85
  -3   4  -1   16.39    2.46
  -3   4  -2  133.83    7.20
  -3   4  -2  119.44    5.76
  -3   4  -3  182.93    8.59
  -3   4  -3  170.67    7.48
  -3   4  -4    3.17    1.81
  -3   4  -4    1.36    1.64
  -3   4  -5   59.76    5.31
  -3   4  -5   54.56    5.23
  -3   4  -6  160.08    8.63
  -3   4  -6  132.14    8.39
  -3   4  -7  180.21   10.30
  -3   4  -8   21.22    4.84
  -3   4  -9    0.55    2.08
   3  -3 -11   68.36    7.23
   3  -3 -10    8.77    3.23
   3  -3  -9   29.63    5.22
   3  -3  -8  160.54    9.30
   3  -3  -7  215.29   10.23
   3  -3  -6   18.78    3.65
  -3   3   5  181.46    6.67
   3  -3  -5  183.02    8.42
  -3   3   4  370.14    9.64
   3  -3  -4  361.80   11.06
  -3   3   3  324.89    9.21
   3  -3  -3  360.80    5.90
   3  -3  -3  316.26    9.69
  -3   3   2  110.87    5.55
   3  -3  -2  126.09    3.44
   3  -3  -2  112.90    5.46
  -3   3   1   25.35    2.83
   3  -3  -1   24.72    2.57
  -3   3   0  194.65    7.66
   3  -3   0  202.36    6.21
  -3   3  -1  161.49    7.18
  -3   3  -1  161.00    5.62
   3  -3   1  149.91    4.97
  -3   3  -2   71.96    4.97
  -3   3  -2   72.86    4.37
  -3   3  -3   16.47    3.14
  -3   3  -3   17.33    2.90
  -3   3  -4  260.44    9.88
  -3   3  -4  227.14    8.92
  -3   3  -5  334.61   11.48
  -3   3  -5  304.99   11.22
  -3   3  -6  123.25    7.26
  -3   3  -6  108.76    7.27
  -3   3  -7    0.42    1.30
  -3   3  -7   -0.61    1.39
  -3   3  -8   31.29    5.39
  -3   3  -9  138.55    9.89
  -3   3 -10   30.48    6.01
   3  -2 -11   32.07    5.87
   3  -2 -10  141.52    9.61
   3  -2  -9   94.59    7.59
   3  -2  -8   18.68    3.41
   3  -2  -8   17.71    3.91
   3  -2  -7   36.91    3.76
   3  -2  -7   37.17    4.53
   3  -2  -6  150.02    6.38
   3  -2  -6  142.41    7.80
  -3   2   5  278.66    7.12
   3  -2  -5  293.50    7.99
   3  -2  -5  273.80   10.10
  -3   2   4    0.79    0.84
   3  -2  -4    0.05    0.57
   3  -2  -4    1.26    1.15
  -3   2   3   15.57    2.31
   3  -2  -3   16.11    1.78
   3  -2  -3   14.95    2.65
  -3   2   2  244.83    7.42
   3  -2  -2  290.45    6.17
   3  -2  -2  252.18    7.82
  -3   2   1  500.35   10.91
   3  -2  -1  514.69   10.14
  -3   2   0   99.27    5.07
   3  -2   0  108.45    4.27
  -3   2  -1  112.08    5.60
  -3   2  -1  126.30    4.88
   3  -2   1  118.24    3.92
  -3   2  -2  420.03   11.05
  -3   2  -2  417.62    9.70
  -3   2  -3  442.64   11.72
  -3   2  -3  439.22   10.93
  -3   2  -4  129.91    6.66
  -3   2  -4  131.46    6.62
  -3   2  -5    0.06    0.99
  -3   2  -5   -0.29    1.18
  -3   2  -6  128.73    7.11
  -3   2  -6  116.48    7.30
  -3   2  -7  195.65    8.94
  -3   2  -7  191.47    9.92
  -3   2  -8  110.73    6.98
  -3   2  -8   98.48    7.71
  -3   2  -9    8.11    3.03
  -3   2 -10   27.10    5.53
   3  -1 -11  153.12   10.52
   3  -1 -10   22.90    4.50
   3  -1 -10   27.79    5.36
   3  -1  -9   40.74    4.87
   3  -1  -9   52.67    5.82
   3  -1  -8  102.54    6.76
   3  -1  -8   94.43    7.20
   3  -1  -7  203.99    8.76
   3  -1  -7  206.59    9.92
   3  -1  -6   47.44    4.15
   3  -1  -6   45.15    4.56
   3  -1  -5   24.53    2.85
   3  -1  -5   17.21    3.24
  -3   1   4    2.67    0.97
   3  -1  -4    4.24    1.43
   3  -1  -4    3.31    1.48
  -3   1   3  321.89    7.30
   3  -1  -3  362.87    8.35
   3  -1  -3  314.14    9.37
  -3   1   2  168.03    5.59
   3  -1  -2  191.80    5.73
   3  -1  -2  163.28    6.28
  -3   1   1    6.91    1.62
   3  -1  -1    8.18    1.67
  -3   1   0  489.23   10.36
   3  -1   0  503.48    8.82
  -3   1  -1  923.30   14.82
   3  -1   1  933.78   10.26
  -3   1  -2  209.76    7.41
  -3   1  -2  220.96    6.98
  -3   1  -3    4.36    1.50
  -3   1  -3    5.17    1.77
  -3   1  -4  323.52    9.93
  -3   1  -4  304.25    9.66
  -3   1  -5   38.51    3.77
  -3   1  -5   36.61    3.96
  -3   1  -6  107.66    6.29
  -3   1  -6   99.78    6.56
  -3   1  -7    6.01    2.07
  -3   1  -7    7.46    2.77
  -3   1  -8   58.39    5.10
  -3   1  -8   41.41    4.93
  -3   1  -9  122.03    8.69
  -3   1 -10   88.86    8.02
  -3   1 -11   10.06    3.67
   3   0 -11   17.92    4.71
   3   0 -11   16.24    4.29
   3   0 -10  112.09    8.52
   3   0 -10  126.88    9.33
   3   0  -9  130.55    8.62
   3   0  -9  129.95    8.96
   3   0  -8  108.82    7.47
   3   0  -8   90.08    7.19
   3   0  -7   39.52    4.35
   3   0  -7   38.34    4.51
   3   0  -6   80.88    5.60
   3   0  -5  238.00    8.76
  -3   0   4   92.58    3.17
   3   0  -4  109.26    5.59
  -3   0   3    6.29    1.25
   3   0  -3    6.38    1.69
  -3   0   2  577.54    9.46
   3   0  -2  668.42   11.82
  -3   0   1  851.81   12.25
  -3   0   0  349.41    8.33
  -3   0  -1  148.14    5.75
  -3   0  -2  156.02    6.19
  -3   0  -3  595.55   12.50
  -3   0  -3  642.81   12.70
  -3   0  -4   97.05    5.36
  -3   0  -4   98.37    5.49
  -3   0  -5   74.00    4.90
  -3   0  -5   70.91    5.06
  -3   0  -6   26.91    3.28
  -3   0  -6   23.32    3.83
  -3   0  -7  180.72    9.09
   3   0   7  178.40    8.14
   3   0   8  235.96    9.65
  -3   0  -9   18.37    4.28
  -3   0 -10    9.46    3.46
  -3   0 -11   38.81    6.46
   3   1 -10   11.19    3.76
   3   1 -10   10.60    3.36
   3   1  -9   -1.84    1.51
   3   1  -9    1.04    1.65
   3   1  -8   49.42    5.57
   3   1  -7  194.41    9.74
   3   1  -6  147.76    7.97
   3   1  -5    1.95    1.40
   3   1  -4  155.10    7.15
   3   1  -3  342.94    6.30
   3   1  -3  408.33   10.81
   3   1  -2  222.83    5.68
   3   1  -2  274.71    8.38
   3   1  -1   34.60    2.55
   3   1  -1   41.31    3.23
   3   1   0  556.40   10.27
   3   1   1  286.01    7.83
   3   1   2  332.46    8.85
   3   1   3  352.70    9.58
  -3  -1  -4   64.56    4.46
   3   1   4   57.33    4.17
  -3  -1  -5  176.68    7.73
   3   1   5  169.99    7.29
  -3  -1  -6  384.26   11.98
   3   1   6  340.51   10.68
  -3  -1  -7   61.77    5.44
   3   1   7   50.77    4.55
  -3  -1  -8   34.83    5.20
   3   1   8   29.04    4.22
  -3  -1  -9  276.32   12.33
   3   1   9  286.47   10.93
  -3  -1 -10  125.96    9.00
  -3  -1 -11   21.19    4.86
  -3  -1 -12    3.04    2.47
   3   2 -10   33.93    6.29
   3   2 -10   32.94    5.98
   3   2  -9  102.39    8.45
   3   2  -8  102.78    8.03
   3   2  -7   20.59    4.26
   3   2  -6   49.58    5.18
   3   2  -5  315.16   11.65
   3   2  -4   91.17    6.00
   3   2  -3  101.73    3.63
   3   2  -3  112.60    6.28
   3   2  -2  313.74    6.97
   3   2  -2  360.44   10.40
   3   2  -1  377.75    8.20
   3   2  -1  441.38   10.95
   3   2   0  251.58    7.13
   3   2   1   84.38    4.43
   3   2   2    0.63    0.86
   3   2   3  134.07    6.06
  -3  -2  -5   44.57    4.00
   3   2   5   43.27    3.93
  -3  -2  -6    2.65    1.65
   3   2   6    0.64    1.33
  -3  -2  -7  203.58    9.29
   3   2   7  197.66    8.59
  -3  -2  -8  315.21   12.20
   3   2   8  300.13   10.94
  -3  -2  -9    1.42    1.73
   3   2   9    3.42    1.92
  -3  -2 -10    1.26    1.75
  -3  -2 -11   69.54    7.04
  -3  -2 -12  127.84    9.78
   3   3  -9   -0.44    2.03
   3   3  -8   56.37    6.46
   3   3  -7  138.63    9.27
   3   3  -6  154.21    9.29
   3   3  -5   33.83    5.09
   3   3  -4   47.36    4.71
   3   3  -3  403.68   12.49
   3   3  -2  285.86    7.23
   3   3  -2  322.74   10.65
   3   3  -1  178.57    6.08
   3   3  -1  200.85    8.01
   3   3   0   13.89    2.32
   3   3   0   14.88    2.72
   3   3   1  318.75    8.85
   3   3   2  500.48   11.53
   3   3   3  109.98    5.75
   3   3   4   18.45    3.10
   3   3   5   36.79    3.69
   3   3   6  429.98   12.48
  -3  -3  -7   52.30    4.90
   3   3   7   45.97    4.49
  -3  -3  -8    1.15    1.65
   3   3   8    1.53    1.49
  -3  -3  -9   52.38    5.45
   3   3   9   49.13    4.87
  -3  -3 -10  114.49    8.20
   3   3  10  118.84    7.53
  -3  -3 -11  105.97    8.30
  -3  -3 -12    5.43    2.68
   3   4  -8   79.17    7.85
   3   4  -7    3.59    2.44
   3   4  -6   20.19    4.54
   3   4  -5  145.78    9.04
   3   4  -4  254.94   11.28
   3   4  -3   97.49    6.71
   3   4  -2   10.53    2.05
   3   4  -2   11.86    2.91
   3   4  -1  105.09    5.15
   3   4  -1  122.79    6.78
   3   4   0  218.56    7.63
   3   4   0  243.16    9.15
   3   4   1   84.34    5.00
   3   4   1   99.18    5.78
   3   4   2   18.01    3.00
   3   4   3  385.27   11.11
   3   4   4  388.44   11.54
   3   4   5  143.79    7.33
   3   4   6    0.04    1.32
   3   4   7   83.92    6.06
  -3  -4  -8  218.43    9.97
   3   4   8  193.60    9.29
  -3  -4  -9   69.75    6.05
   3   4   9   67.65    5.86
  -3  -4 -10    8.30    2.97
   3   4  10   10.33    3.03
  -3  -4 -11   54.66    6.15
  -3  -4 -12  159.44   10.54
   3   5  -7   70.15    7.52
   3   5  -6  226.01   12.42
   3   5  -5   71.67    6.90
   3   5  -4    0.01    1.31
   3   5  -3   51.91    5.41
   3   5  -2  192.41    9.50
   3   5  -1   34.65    3.37
   3   5  -1   36.78    4.13
   3   5   0    0.30    1.14
   3   5   0    1.33    1.25
   3   5   1  133.44    6.70
   3   5   1  142.43    7.32
   3   5   2  153.51    7.32
   3   5   3  334.87   11.03
   3   5   4   16.25    3.35
   3   5   5   76.18    5.78
   3   5   6  170.74    8.62
   3   5   7   91.74    6.56
   3   5   8   -0.33    1.52
   3   5   9   92.72    7.02
   3   5  10  169.84    9.59
  -3  -5 -11  129.09    8.96
   3   5  11  121.13    8.29
  -3  -5 -12   13.41    4.13
   3   6  -6    3.45    2.47
   3   6  -5  138.63    9.83
   3   6  -4  133.62    9.15
   3   6  -3   60.82    6.13
   3   6  -2   13.25    3.45
   3   6  -1  136.76    6.92
   3   6  -1  141.71    8.33
   3   6   0  209.11    8.78
   3   6   0  223.85   10.02
   3   6   1   74.25    5.48
   3   6   1   87.64    6.23
   3   6   2  106.21    6.64
   3   6   2  123.17    7.10
   3   6   3   71.19    5.64
   3   6   4  235.82   10.16
   3   6   5  160.25    8.59
   3   6   6    7.51    2.67
   3   6   7   57.38    5.59
   3   6   8  183.72    9.88
   3   6   9  217.60   10.98
   3   6  10   16.66    3.92
   3   6  11    1.22    1.86
   3   7  -5   36.00    6.33
   3   7  -4   -1.08    1.74
   3   7  -3   26.17    5.12
   3   7  -2  171.76   10.08
   3   7  -1   90.73    7.20
   3   7   0   59.37    5.18
   3   7   0   70.40    6.16
   3   7   1   72.03    5.83
   3   7   1   81.93    6.38
   3   7   2  152.92    8.42
   3   7   2  171.09    8.82
   3   7   3  131.44    7.99
   3   7   3  155.52    8.20
   3   7   4    1.38    1.75
   3   7   5  104.38    7.44
   3   7   6  186.76   10.01
   3   7   7  238.07   11.44
   3   7   8   59.51    6.02
   3   7   9    1.23    1.78
   3   7  10   38.54    6.18
   3   7  11  158.35   10.26
   3   7  12   34.71    5.90
   3   8  -4   54.65    6.70
   3   8  -3  114.89    9.05
   3   8  -2   46.67    6.86
   3   8  -1    2.52    2.18
   3   8   0  111.89    7.48
   3   8   0  113.29    8.11
   3   8   1   95.80    7.10
   3   8   1  104.58    7.47
   3   8   2   10.10    2.95
   3   8   2    9.69    2.88
   3   8   3   68.84    6.28
   3   8   3   83.95    6.46
   3   8   4  190.56   10.28
   3   8   4  229.66   10.32
   3   8   5  142.81    9.09
   3   8   6   42.75    5.23
   3   8   7    3.66    2.26
   3   8   8   34.89    5.76
   3   8   9  119.80    8.97
   3   8  10   28.81    5.50
   3   8  11    1.65    2.07
   3   9  -2  101.70    8.77
   3   9  -1  107.80    8.61
   3   9   0   13.38    3.76
   3   9   1   18.79    4.18
   3   9   1   17.85    4.11
   3   9   2   71.16    6.65
   3   9   2   86.08    7.15
   3   9   3  247.96   12.30
   3   9   3  297.46   12.50
   3   9   4   22.59    4.78
   3   9   4   29.75    4.90
   3   9   5    1.31    2.06
   3   9   6   31.07    5.49
   3   9   7  145.33   10.01
   3   9   8   80.02    7.61
   3   9   9    0.23    1.67
   3   9  10   44.43    6.96
   3  10   1   82.92    7.50
   3  10   2   49.30    6.07
   3  10   3    1.75    2.05
   3  10   4   41.17    6.55
   3  10   5  112.24    9.03
   3  10   6   73.61    7.55
   3  10   7    3.55    2.88
   3  10   8   69.16    7.70
  -4   9   7   66.24    7.01
   4  -9  -7   66.59    7.52
  -4   9   6   77.22    7.57
   4  -9  -6   75.78    7.89
  -4   9   5   21.09    4.90
   4  -9  -5   22.26    5.15
  -4   9   4    2.07    1.78
   4  -9  -4    2.77    2.80
  -4   9   3   60.02    6.69
  -4   9   2  124.43    9.69
  -4   9   1   40.90    6.79
  -4   9   0    1.27    2.20
   4  -8  -8  119.43    9.72
  -4   8   7   55.58    6.00
   4  -8  -7   50.61    7.45
  -4   8   6   14.18    3.76
   4  -8  -6   18.24    4.64
  -4   8   5   80.39    7.29
   4  -8  -5   68.59    7.06
  -4   8   4   99.42    8.03
   4  -8  -4   99.75    7.90
  -4   8   3   72.28    6.89
   4  -8  -3   61.92    6.34
  -4   8   2    3.41    2.38
  -4   8   1   21.10    4.59
  -4   8   0   93.57    8.10
  -4   8  -1   54.34    6.40
  -4   8  -2   -0.22    1.67
  -4   8  -3   45.10    6.97
   4  -7  -9   53.04    7.82
   4  -7  -8    0.76    1.98
   4  -7  -7   65.59    6.99
  -4   7   6  163.28    9.50
   4  -7  -6  151.26    9.78
  -4   7   5   22.05    4.28
   4  -7  -5   15.67    4.12
  -4   7   4    0.99    1.75
   4  -7  -4    3.22    2.31
  -4   7   3   45.98    5.30
   4  -7  -3   40.28    5.69
  -4   7   2  147.14    9.25
   4  -7  -2  128.89    7.96
  -4   7   1   94.47    7.51
  -4   7   0   -1.18    1.28
  -4   7  -1   44.47    5.53
  -4   7  -2  183.76   10.85
  -4   7  -3   96.93    8.13
  -4   7  -4   14.96    4.00
  -4   7  -5   20.26    4.60
   4  -6 -10    0.31    2.36
   4  -6  -9   25.42    5.37
   4  -6  -8   86.90    7.87
   4  -6  -7   99.55    8.10
  -4   6   6    2.81    1.70
   4  -6  -6    3.37    2.48
  -4   6   5    8.99    2.71
   4  -6  -5   11.07    3.28
  -4   6   4  240.22   10.83
   4  -6  -4  238.21   10.77
  -4   6   3  128.93    8.09
   4  -6  -3  117.18    7.52
  -4   6   2    1.04    1.38
   4  -6  -2    2.76    1.83
  -4   6   1   98.44    7.29
   4  -6  -1   87.21    6.01
  -4   6   0  198.55   10.38
  -4   6  -1  140.52    8.85
  -4   6  -2   33.65    5.38
  -4   6  -3   75.43    6.77
  -4   6  -4   15.38    4.01
  -4   6  -5   61.09    6.41
  -4   6  -6   54.51    6.21
   4  -5 -10   87.97    8.41
   4  -5  -9   54.12    6.41
   4  -5  -8    4.28    2.41
   4  -5  -7   19.24    4.45
  -4   5   6   72.59    5.56
   4  -5  -6   79.69    6.73
  -4   5   5  223.93    9.67
   4  -5  -5  229.72   10.73
  -4   5   4   34.60    4.07
   4  -5  -4   31.37    4.66
  -4   5   3   54.11    5.02
   4  -5  -3   56.85    5.08
  -4   5   2  393.52   13.22
   4  -5  -2  403.76   12.19
  -4   5   1  221.48   10.08
   4  -5  -1  227.86    8.78
  -4   5   0   34.18    4.18
  -4   5  -1    4.69    2.21
  -4   5  -2  184.49    9.72
  -4   5  -3   31.51    5.00
  -4   5  -4  115.58    8.06
  -4   5  -5    2.83    2.15
  -4   5  -5    7.57    2.89
  -4   5  -6   40.10    6.03
  -4   5  -6   36.12    5.59
  -4   5  -7  150.01    9.75
  -4   5  -7  143.15    9.76
   4  -4 -10   -0.19    1.78
   4  -4  -9   15.25    4.19
   4  -4  -8  118.46    8.76
   4  -4  -7  167.24    9.83
   4  -4  -6   15.35    3.65
  -4   4   5   34.73    3.70
   4  -4  -5   31.74    4.79
  -4   4   4  182.46    8.20
   4  -4  -4  190.68    8.96
  -4   4   3  143.40    7.38
   4  -4  -3  157.31    7.73
  -4   4   2   53.07    4.63
   4  -4  -2   55.51    4.60
  -4   4   1  120.03    7.00
   4  -4  -1  129.91    6.32
  -4   4   0  151.68    8.05
   4  -4   0  152.72    6.40
  -4   4  -1  268.18   10.77
  -4   4  -2  152.84    8.35
  -4   4  -2  158.83    6.95
  -4   4  -3    2.26    1.75
  -4   4  -3    1.14    1.46
  -4   4  -4  140.50    8.44
  -4   4  -4  149.27    7.99
  -4   4  -5  207.55   10.41
  -4   4  -5  193.62    9.65
  -4   4  -6   86.86    7.01
  -4   4  -6   90.04    7.13
  -4   4  -7   -0.27    1.49
  -4   4  -7    0.19    1.54
  -4   4  -8   42.69    6.66
   4  -3 -10   99.93    8.72
   4  -3  -9  133.55    9.55
   4  -3  -8   61.39    6.37
   4  -3  -7    5.63    2.69
   4  -3  -6  174.08    9.40
  -4   3   5  158.40    6.85
   4  -3  -5  156.56    8.43
  -4   3   4   20.41    3.20
   4  -3  -4   19.47    3.56
  -4   3   3   36.86    3.64
   4  -3  -3   38.45    3.94
  -4   3   2  120.86    6.44
   4  -3  -2  135.71    6.60
  -4   3   1  149.13    7.27
   4  -3  -1  161.72    6.66
  -4   3   0  212.90    8.87
   4  -3   0  212.83    7.01
  -4   3  -1    5.03    1.91
   4  -3   1    6.58    1.61
  -4   3  -2  113.08    6.88
  -4   3  -2  118.97    5.95
  -4   3  -3  295.02   11.22
  -4   3  -3  301.81   10.04
  -4   3  -4  206.82    9.71
  -4   3  -4  207.68    9.02
  -4   3  -5    0.68    1.35
  -4   3  -5    0.40    1.54
  -4   3  -6   78.49    6.41
  -4   3  -6   76.49    6.37
  -4   3  -7  158.79    9.23
  -4   3  -7  148.63    9.30
  -4   3  -8   10.50    3.24
  -4   3  -8    6.96    3.08
  -4   3  -9    3.62    2.69
   4  -2 -10   29.48    5.88
   4  -2  -9   10.33    3.42
   4  -2  -8   80.28    7.17
   4  -2  -7  194.02   10.33
   4  -2  -6  106.04    7.35
   4  -2  -5    9.09    2.60
  -4   2   4  132.17    5.87
   4  -2  -4  162.93    6.18
   4  -2  -4  144.75    7.65
  -4   2   3  371.11   10.03
   4  -2  -3  431.10    9.43
   4  -2  -3  384.78   11.47
  -4   2   2  148.20    6.61
   4  -2  -2  165.80    5.74
   4  -2  -2  152.84    6.77
  -4   2   1    1.05    1.11
   4  -2  -1    1.11    1.02
  -4   2   0  102.54    5.87
   4  -2   0  105.28    4.81
  -4   2  -1  463.16   12.63
   4  -2   1  469.36    8.86
  -4   2  -2  335.29   11.12
  -4   2  -2  374.15   10.19
  -4   2  -3   37.54    4.02
  -4   2  -3   38.69    3.84
  -4   2  -4   17.92    3.44
  -4   2  -4   23.89    3.76
  -4   2  -5  134.10    7.74
  -4   2  -5  130.38    7.51
  -4   2  -6  122.47    7.63
  -4   2  -6  125.27    7.84
  -4   2  -7   10.99    2.98
  -4   2  -7    9.07    2.97
  -4   2  -8   18.87    3.89
  -4   2  -8   17.25    4.18
  -4   2  -9   78.13    7.56
  -4   2 -10   79.60    8.02
   4  -1 -10   36.05    6.28
   4  -1  -9   88.55    7.83
   4  -1  -8   35.90    4.46
   4  -1  -8   33.47    5.50
   4  -1  -7    0.17    1.33
   4  -1  -7    0.02    1.42
   4  -1  -6  140.72    7.25
   4  -1  -6  140.33    8.44
   4  -1  -5  251.72    8.93
   4  -1  -5  229.80   10.09
   4  -1  -4  349.47    9.92
   4  -1  -4  308.97   11.04
  -4   1   3    0.50    0.89
   4  -1  -3    0.29    0.85
   4  -1  -3    1.05    1.14
  -4   1   2  132.19    5.87
   4  -1  -2  152.46    6.07
   4  -1  -2  135.10    6.40
  -4   1   1  446.90   11.03
   4  -1  -1  462.60   10.85
  -4   1   0  137.43    6.42
   4  -1   0  134.43    5.42
  -4   1  -1   24.98    2.99
   4  -1   1   27.51    2.31
  -4   1  -2  137.01    6.87
   4  -1   2  145.86    4.23
  -4   1  -3  349.68   11.22
  -4   1  -3  381.71   10.95
  -4   1  -4  152.03    7.74
  -4   1  -4  149.83    7.46
  -4   1  -5   59.34    5.07
  -4   1  -5   57.09    4.97
  -4   1  -6    4.65    2.04
  -4   1  -6    5.79    2.55
  -4   1  -7  115.03    7.46
  -4   1  -7  121.63    8.11
  -4   1  -8  164.07    9.08
  -4   1  -8  155.06    9.55
  -4   1  -9   39.70    6.28
   4  -1   9   40.27    4.86
  -4   1 -10    9.49    3.37
   4   0 -10   49.30    6.14
   4   0 -10   56.36    6.75
   4   0  -9    1.78    2.08
   4   0  -9    0.16    1.66
   4   0  -8    6.92    2.81
   4   0  -8    7.41    2.82
   4   0  -7  422.99   14.06
   4   0  -7  416.33   15.33
   4   0  -6  104.57    6.71
   4   0  -5    3.44    1.83
   4   0  -4   14.05    2.77
  -4   0   3  198.64    6.39
   4   0  -3  237.46    8.44
  -4   0   2  274.24    7.90
   4   0  -2  337.30    9.67
  -4   0   1   32.69    3.05
  -4   0   0  123.11    5.87
  -4   0  -1   82.94    5.03
  -4   0  -2  469.88   12.18
  -4   0  -3   93.22    5.72
  -4   0  -4   60.30    4.88
  -4   0  -4   60.77    4.87
  -4   0  -5  124.98    7.13
  -4   0  -5  125.35    7.20
  -4   0  -6   77.88    5.84
  -4   0  -6   88.98    6.42
  -4   0  -7   54.53    5.53
   4   0   7   53.21    5.10
  -4   0  -8   23.87    4.52
   4   0   8   22.77    4.08
  -4   0  -9  118.04    8.69
   4   0   9  128.25    8.19
  -4   0 -10  116.77    9.12
  -4   0 -11   44.54    7.03
   4   1  -9  108.72    8.73
   4   1  -9  115.92    9.14
   4   1  -8  184.62   10.51
   4   1  -7    4.89    2.40
   4   1  -6   97.21    6.96
   4   1  -5  292.03   11.17
   4   1  -4  182.65    8.44
   4   1  -3   93.97    4.24
   4   1  -3  112.45    6.30
   4   1  -2    0.90    0.94
   4   1  -2    0.49    1.05
   4   1  -1  270.88    8.05
   4   1  -1  321.40    9.82
   4   1   0   82.53    4.73
   4   1   1  702.98   14.11
  -4  -1  -2   77.33    4.97
   4   1   2   78.14    5.00
   4   1   3  199.69    8.18
   4   1   4  304.54   10.47
  -4  -1  -5   63.67    5.26
   4   1   5   70.03    5.38
  -4  -1  -6   11.71    2.99
   4   1   6   12.38    2.97
  -4  -1  -7  116.62    7.63
   4   1   7  118.64    7.33
  -4  -1  -8  198.46   10.42
   4   1   8  189.27    9.50
  -4  -1  -9   17.78    4.24
   4   1   9   21.22    4.11
  -4  -1 -10   18.86    4.70
   4   1  10   25.39    4.66
  -4  -1 -11   25.14    5.42
   4   2  -9    2.40    2.22
   4   2  -8   40.67    6.44
   4   2  -7  133.32    9.01
   4   2  -6  134.45    8.57
   4   2  -5   45.14    4.89
   4   2  -4   25.47    4.26
   4   2  -3  177.94    8.48
   4   2  -2  215.56    6.83
   4   2  -2  244.10    9.46
   4   2  -1  160.51    6.30
   4   2  -1  190.88    8.13
   4   2   0    3.81    1.52
   4   2   1  326.73    9.74
   4   2   2  194.71    7.88
   4   2   3   46.48    4.14
   4   2   4   32.23    3.69
   4   2   5  166.82    8.14
   4   2   6  373.17   12.48
  -4  -2  -7  235.87   10.61
   4   2   7  200.98    9.54
  -4  -2  -8    0.52    1.71
   4   2   8    0.03    1.26
  -4  -2  -9    0.85    1.48
   4   2   9    0.90    1.75
  -4  -2 -10  233.67   12.34
   4   2  10  237.17   11.30
  -4  -2 -11   55.87    6.66
  -4  -2 -12    9.85    3.94
   4   3  -8   78.06    7.69
   4   3  -7   33.19    5.71
   4   3  -6    0.13    1.78
   4   3  -5   75.73    6.67
   4   3  -4  278.58   11.73
   4   3  -3  263.00   10.96
   4   3  -2    0.25    0.98
   4   3  -2    0.48    1.13
   4   3  -1  120.70    5.70
   4   3  -1  144.83    7.54
   4   3   0  129.93    6.14
   4   3   0  148.01    7.46
   4   3   1   64.98    4.61
   4   3   2   61.67    4.61
   4   3   3  148.50    7.30
   4   3   5  107.14    6.67
   4   3   6   98.32    6.62
   4   3   7   34.62    4.18
  -4  -3  -8  210.68   10.56
   4   3   8  191.10    9.68
  -4  -3  -9  126.47    8.65
   4   3   9  124.88    8.14
  -4  -3 -10    5.01    2.65
   4   3  10    2.69    2.10
  -4  -3 -11   39.79    6.41
   4   3  11   41.96    5.20
  -4  -3 -12  146.86   10.75
   4   4  -7   40.37    6.59
   4   4  -6  131.59    9.50
   4   4  -5   73.67    6.94
   4   4  -4    3.09    2.04
   4   4  -3  125.96    8.11
   4   4  -2  361.64   13.10
   4   4  -1  134.99    6.34
   4   4  -1  136.96    7.87
   4   4   0   -0.83    0.88
   4   4   0    0.30    1.15
   4   4   1   64.93    4.86
   4   4   2  227.11    9.02
   4   4   3  156.86    7.78
   4   4   4   15.49    3.20
   4   4   5    7.32    2.43
   4   4   6  229.29   10.23
   4   4   7  203.91    9.95
   4   4   8   29.80    4.92
   4   4   9   24.71    4.52
   4   4  10  128.48    8.68
  -4  -4 -11  121.54    9.27
   4   4  11  108.71    8.24
  -4  -4 -12   35.05    6.23
   4   5  -6    8.70    3.59
   4   5  -5   57.37    6.57
   4   5  -4  156.29    9.90
   4   5  -3   84.28    7.17
   4   5  -2   11.51    3.25
   4   5  -1   67.57    4.91
   4   5  -1   76.05    6.30
   4   5   0  200.92    8.45
   4   5   0  204.97    9.82
   4   5   1   98.45    6.20
   4   5   1  113.13    7.18
   4   5   2   56.50    4.96
   4   5   3   65.82    5.42
   4   5   4  283.55   11.19
   4   5   5  237.24   10.48
   4   5   6   31.12    4.80
   4   5   7   46.28    5.09
   4   5   8  162.44    9.49
   4   5   9  155.23    9.51
   4   5  10   55.06    5.99
   4   5  11    0.39    1.98
   4   6  -5   77.94    7.79
   4   6  -4    2.56    2.05
   4   6  -3   35.33    5.87
   4   6  -2   90.76    7.46
   4   6  -1  166.02    9.60
   4   6   0   30.63    3.80
   4   6   0   27.02    4.78
   4   6   1    8.95    2.62
   4   6   1    7.99    2.64
   4   6   2  152.05    8.29
   4   6   2  172.03    9.16
   4   6   3  128.85    7.84
   4   6   4   77.79    6.25
   4   6   5   45.56    5.00
   4   6   6  160.62    9.26
   4   6   7  175.96    9.92
   4   6   8   55.14    5.79
   4   6   9    0.89    1.66
   4   6  10   25.93    4.95
   4   6  11   65.35    6.93
   4   7  -4  104.30    9.06
   4   7  -3   63.92    6.89
   4   7  -2   72.27    7.12
   4   7  -1   75.43    6.91
   4   7   0   81.09    6.27
   4   7   0   95.13    7.60
   4   7   1  167.84    8.95
   4   7   1  182.98   10.04
   4   7   2   82.68    6.57
   4   7   2  105.54    7.63
   4   7   3    2.10    1.97
   4   7   3    2.14    1.76
   4   7   4  104.84    7.62
   4   7   5  173.11    9.84
   4   7   6   70.91    6.70
   4   7   7   25.36    4.87
   4   7   8   64.84    6.48
   4   7   9   92.23    7.99
   4   7  10   35.59    6.13
   4   7  11    1.03    2.20
   4   8  -3    7.39    3.36
   4   8  -2  178.37   11.46
   4   8  -1   63.44    6.77
   4   8   0   59.47    6.44
   4   8   1    0.27    1.45
   4   8   1    0.87    1.61
   4   8   2   74.53    6.67
   4   8   2   74.98    6.75
   4   8   3  173.16    9.96
   4   8   3  191.23   10.45
   4   8   4   67.23    6.44
   4   8   4   76.17    6.52
   4   8   5    1.83    1.97
   4   8   6    5.38    2.67
   4   8   7  246.48   12.79
   4   8   8   27.78    5.37
   4   8   9    3.63    2.61
   4   8  10   26.63    5.51
   4   9  -1    1.21    2.08
   4   9   0   31.84    5.91
   4   9   1  118.20    9.05
   4   9   2   94.97    7.79
   4   9   2  110.87    8.54
   4   9   3    7.86    3.10
   4   9   3    8.56    3.18
   4   9   4   31.48    5.47
   4   9   4   37.99    5.90
   4   9   5   94.51    8.14
   4   9   5  101.66    7.89
   4   9   6   66.40    7.08
   4   9   6   78.96    6.94
   4   9   7    0.29    1.73
   4   9   8   17.84    4.72
   4   9   9   71.52    7.83
   4  10   3  113.12    9.06
   4  10   3  116.32    8.96
   4  10   4   71.17    7.44
   4  10   5    2.93    2.66
   4  10   6    7.32    3.56
   4  10   7   57.24    8.31
  -5   8   6   50.96    6.15
   5  -8  -6   62.28    7.30
  -5   8   5   37.01    6.08
   5  -8  -5   40.51    6.57
  -5   8   4    0.99    1.94
   5  -8  -4   -1.19    1.90
  -5   8   3   27.45    5.34
  -5   8   2  122.97    9.43
  -5   8   1   54.15    6.54
  -5   8   0   10.42    3.91
  -5   8  -1   16.66    4.61
   5  -7  -8  107.72    9.44
   5  -7  -7   51.85    7.64
  -5   7   6    0.53    1.68
   5  -7  -6    0.06    2.09
  -5   7   5   26.28    4.99
   5  -7  -5   28.56    5.42
  -5   7   4  102.33    8.09
   5  -7  -4  106.74    8.22
  -5   7   3  110.39    8.44
   5  -7  -3  103.33    7.74
  -5   7   2    2.94    1.89
  -5   7   1    1.93    1.99
  -5   7   0  105.47    8.55
  -5   7  -1  158.43   10.56
  -5   7  -2   58.14    6.75
  -5   7  -3    3.27    2.56
   5  -6  -8    0.86    2.34
   5  -6  -7   45.39    7.03
   5  -6  -6  141.60    9.63
  -5   6   5   99.81    7.43
   5  -6  -5  109.66    8.25
  -5   6   4   14.24    3.54
   5  -6  -4   16.52    4.06
  -5   6   3    3.51    1.99
   5  -6  -3    3.79    2.20
  -5   6   2  105.53    7.94
  -5   6   1  113.00    8.26
  -5   6   0   57.56    6.12
  -5   6  -1    1.58    1.89
  -5   6  -2  119.30    8.92
  -5   6  -3  171.69   10.77
  -5   6  -4   54.32    6.36
  -5   6  -5    0.77    1.83
   5  -5  -9    4.36    2.81
   5  -5  -8  116.29    9.32
   5  -5  -7  104.87    8.52
   5  -5  -6   28.89    5.30
  -5   5   5   -0.03    1.28
   5  -5  -5    1.98    2.01
  -5   5   4   61.87    5.64
   5  -5  -4   72.67    6.35
  -5   5   3  198.88   10.00
   5  -5  -3  206.88    9.86
  -5   5   2   48.42    5.11
   5  -5  -2   50.35    4.82
  -5   5   1    6.90    2.40
  -5   5   0  141.14    8.86
  -5   5  -1  134.91    8.81
  -5   5  -2  100.68    7.77
  -5   5  -3    4.74    2.47
  -5   5  -4   16.25    4.11
  -5   5  -5   61.16    6.51
  -5   5  -6   80.12    7.55
   5  -4  -9  119.15    9.65
   5  -4  -8   11.14    3.65
   5  -4  -7   -0.68    1.38
   5  -4  -6   79.82    6.94
   5  -4  -5  195.31   10.19
  -5   4   4  140.99    7.80
   5  -4  -4  145.40    8.43
  -5   4   3    2.57    1.72
   5  -4  -3    4.77    2.06
  -5   4   2  108.73    7.17
   5  -4  -2  114.31    6.78
  -5   4   1  177.51    9.20
   5  -4  -1  178.73    7.85
  -5   4   0  221.84   10.49
  -5   4  -1    2.48    1.69
  -5   4  -2   62.13    5.89
  -5   4  -3   55.16    5.77
  -5   4  -4  128.70    8.70
  -5   4  -5   26.62    4.91
  -5   4  -5   23.69    4.33
  -5   4  -6   16.92    4.03
  -5   4  -6   14.26    3.59
  -5   4  -7   65.54    6.87
  -5   4  -7   59.42    6.47
   5  -3  -9    5.20    2.84
   5  -3  -8   70.25    7.15
   5  -3  -7  130.09    9.11
   5  -3  -6   67.48    6.44
   5  -3  -5    2.42    1.92
  -5   3   4   93.23    5.98
   5  -3  -4   90.44    6.62
  -5   3   3  216.89    9.19
   5  -3  -3  213.66    9.49
  -5   3   2  153.00    7.94
   5  -3  -2  168.69    7.96
  -5   3   1   41.77    4.39
   5  -3  -1   45.96    4.05
  -5   3   0   72.58    5.83
  -5   3  -1  148.79    8.36
  -5   3  -2  172.46    9.24
  -5   3  -3    7.27    2.64
  -5   3  -3    7.95    2.38
  -5   3  -4   26.69    4.79
  -5   3  -4   22.90    4.04
  -5   3  -5  183.29   10.20
  -5   3  -5  182.23    9.51
  -5   3  -6  151.06    9.53
  -5   3  -6  148.86    9.12
  -5   3  -7   10.34    3.34
  -5   3  -7   11.44    3.47
  -5   3  -8    1.59    1.98
  -5   3  -8    6.03    2.83
   5  -2  -9   89.61    8.45
   5  -2  -8   76.99    7.42
   5  -2  -7    0.87    1.83
   5  -2  -6   54.26    5.79
   5  -2  -5  184.31    9.78
   5  -2  -4  150.71    8.42
  -5   2   3   44.27    4.10
   5  -2  -3   48.23    4.73
  -5   2   2   19.13    3.41
   5  -2  -2   27.66    3.03
   5  -2  -2   21.10    3.52
  -5   2   1   83.64    5.79
   5  -2  -1  101.48    5.78
  -5   2   0  121.14    7.08
   5  -2   0  120.32    5.79
  -5   2  -1   31.48    4.60
  -5   2  -2   30.35    4.56
  -5   2  -3  224.41   10.31
  -5   2  -4  158.67    8.94
  -5   2  -4  169.48    8.55
  -5   2  -5   34.41    5.17
  -5   2  -5   32.94    4.87
  -5   2  -6   11.54    3.24
  -5   2  -6   10.32    3.06
  -5   2  -7  119.54    8.47
  -5   2  -7  118.38    8.53
  -5   2  -8  102.56    8.07
  -5   2  -8   92.72    8.01
  -5   2  -9   10.88    3.53
  -5   2  -9   13.53    4.17
   5  -1  -9    6.04    2.93
   5  -1  -8   10.12    3.46
   5  -1  -7  156.44   10.01
   5  -1  -6  145.20    9.22
   5  -1  -5   13.75    3.01
   5  -1  -5   11.37    3.25
   5  -1  -4    1.02    1.33
   5  -1  -4   -0.03    1.16
  -5   1   3  402.98   11.08
   5  -1  -3  464.50   12.15
   5  -1  -3  404.21   12.92
  -5   1   2  289.07    9.74
   5  -1  -2  356.92   10.45
   5  -1  -2  294.31   10.40
  -5   1   1   32.08    3.54
   5  -1  -1   31.03    3.42
  -5   1   0    4.36    1.86
   5  -1   0    4.72    1.62
  -5   1  -1   62.33    5.12
   5  -1   1   74.58    4.21
  -5   1  -2  143.98    7.83
  -5   1  -3   81.43    6.14
  -5   1  -4   16.53    3.59
  -5   1  -5   69.71    6.05
  -5   1  -5   71.75    5.96
  -5   1  -6  204.76   10.39
  -5   1  -6  225.65   10.81
  -5   1  -7  102.31    7.73
  -5   1  -7  103.49    7.89
  -5   1  -8   -1.04    1.23
  -5   1  -8   -0.51    1.36
  -5   1  -9   51.86    6.39
   5  -1   9   59.16    6.26
  -5   1 -10   71.40    7.72
   5   0  -9   27.04    5.55
   5   0  -8   99.74    7.84
   5   0  -8  101.96    8.65
   5   0  -7    9.87    3.12
   5   0  -7    7.72    2.97
   5   0  -6    6.22    2.52
   5   0  -6    4.13    2.22
   5   0  -5  230.19   10.04
   5   0  -4  341.48   11.63
   5   0  -3   83.82    5.66
  -5   0   2   20.90    3.26
   5   0  -2   24.14    3.70
  -5   0   1  180.70    7.73
  -5   0   0  104.87    6.21
  -5   0  -1   47.54    4.46
  -5   0  -2    9.34    2.61
  -5   0  -3  186.66    8.97
  -5   0  -4  147.06    8.24
  -5   0  -5  264.89   11.27
  -5   0  -6    0.47    1.52
  -5   0  -6   -0.37    1.17
  -5   0  -7   74.49    6.58
   5   0   7   75.23    6.46
  -5   0  -8  184.12   10.70
   5   0   8  187.99   10.40
  -5   0  -9  104.18    8.60
   5   0   9  118.96    8.56
  -5   0 -10   12.23    4.02
   5   0  10    8.06    3.04
   5   1  -8    4.64    2.86
   5   1  -8    2.62    2.12
   5   1  -7   79.27    7.09
   5   1  -6  225.93   11.05
   5   1  -5   42.52    4.89
   5   1  -4    0.60    1.42
   5   1  -3  117.67    7.10
   5   1  -2   93.64    5.31
   5   1  -2  103.56    6.50
   5   1  -1   86.76    5.32
   5   1  -1   98.84    6.24
   5   1   0    3.07    1.52
   5   1   1  110.80    6.48
   5   1   2  191.54    8.66
   5   1   3  158.82    8.21
   5   1   4    2.28    1.58
   5   1   5  111.13    7.35
  -5  -1  -7  104.67    7.73
   5   1   7  103.60    7.48
  -5  -1  -8    5.88    2.75
   5   1   8    1.22    1.89
  -5  -1  -9   12.86    3.77
   5   1   9   10.90    3.36
  -5  -1 -10   60.47    6.97
   5   1  10   67.33    6.68
  -5  -1 -11   74.41    7.86
   5   2  -8  147.85   10.45
   5   2  -7   43.98    6.59
   5   2  -6   -0.32    1.48
   5   2  -5   56.49    5.90
   5   2  -4   83.96    6.70
   5   2  -3  100.63    7.03
   5   2  -2   17.13    3.56
   5   2  -1   35.82    3.53
   5   2  -1   35.16    4.15
   5   2   0  225.21    8.75
   5   2   1  467.62   13.00
   5   2   2   27.62    4.18
   5   2   3  138.96    7.66
   5   2   4  171.36    8.76
   5   2   5  162.40    8.84
   5   2   6   16.10    3.66
   5   2   7   37.33    4.66
   5   2   8  106.89    7.85
  -5  -2  -9   32.29    5.75
   5   2   9   33.96    5.58
  -5  -2 -10   55.88    6.52
   5   2  10   59.73    6.34
  -5  -2 -11    2.19    2.60
   5   2  11   -3.05    1.50
   5   3  -7   33.74    6.10
   5   3  -6   57.56    6.49
   5   3  -5   26.69    5.07
   5   3  -4    0.89    1.73
   5   3  -3  190.70   10.11
   5   3  -2  196.80    9.94
   5   3  -1  248.52    8.96
   5   3  -1  290.39   11.70
   5   3   0   30.13    3.50
   5   3   0   33.78    4.90
   5   3   1   42.92    4.18
   5   3   2  275.89   10.51
   5   3   3  164.38    8.47
   5   3   4    6.84    2.49
   5   3   5    7.05    2.55
   5   3   6  245.96   11.23
   5   3   7  141.50    8.85
   5   3   8   59.00    6.02
   5   3   9    1.81    2.09
   5   3  10   94.19    7.85
  -5  -3 -11  131.13   10.18
   5   3  11  121.25    9.17
   5   4  -6    2.68    2.53
   5   4  -5   35.68    6.26
   5   4  -4  129.67    9.13
   5   4  -3  159.97    9.75
   5   4  -2   31.13    5.09
   5   4  -1   56.73    5.61
   5   4   0  180.28    8.24
   5   4   0  203.98   10.16
   5   4   1  116.04    6.91
   5   4   1  137.85    8.25
   5   4   2   23.47    3.93
   5   4   3   12.58    3.15
   5   4   4   96.28    6.86
   5   4   5  160.97    9.04
   5   4   6   43.43    4.99
   5   4   7    5.08    2.39
   5   4   8   97.94    7.72
   5   4   9  141.87    9.43
   5   4  10   63.31    6.68
   5   4  11    8.91    3.28
   5   5  -5   93.51    8.58
   5   5  -4   14.12    4.04
   5   5  -3    3.70    2.41
   5   5  -2  121.73    8.78
   5   5  -1  178.44   10.21
   5   5   0   46.73    4.56
   5   5   0   46.22    5.39
   5   5   1   22.43    3.95
   5   5   1   22.27    4.39
   5   5   2  118.45    7.45
   5   5   3  218.12   10.25
   5   5   4  128.68    8.14
   5   5   5    3.63    2.18
   5   5   6   44.70    5.28
   5   5   7  112.77    8.19
   5   5   8   61.72    6.32
   5   5   9   -2.46    1.27
   5   5  10   47.94    5.96
   5   5  11   76.60    7.64
   5   6  -4   40.97    6.83
   5   6  -3   63.86    6.92
   5   6  -2   29.27    5.53
   5   6  -1   13.45    3.71
   5   6   0  131.85    8.96
   5   6   1  201.99    9.77
   5   6   1  229.53   11.54
   5   6   2  203.02   10.07
   5   6   2  234.12   11.51
   5   6   3    1.30    1.72
   5   6   4   40.85    5.05
   5   6   5  103.94    7.86
   5   6   6   60.15    6.23
   5   6   7   -0.91    1.28
   5   6   8   46.88    5.70
   5   6   9  114.43    8.94
   5   6  10   53.27    6.39
   5   6  11   22.22    5.20
   5   7  -3   -0.29    1.83
   5   7  -2  100.04    8.73
   5   7  -1   80.52    7.57
   5   7   0  120.22    9.05
   5   7   1    3.29    2.16
   5   7   1    3.75    2.29
   5   7   2   53.24    5.66
   5   7   2   47.04    5.70
   5   7   3   92.54    7.36
   5   7   3  100.95    7.94
   5   7   4   55.18    5.91
   5   7   5    2.19    2.20
   5   7   6   17.29    4.25
   5   7   7  120.75    9.16
   5   7   8   60.11    6.65
   5   7   9    1.72    2.09
   5   7  10    7.66    3.61
   5   8  -1    1.88    2.32
   5   8   0   62.92    6.90
   5   8   1   53.32    6.35
   5   8   2   86.18    7.39
   5   8   2   94.98    8.17
   5   8   3    9.13    3.26
   5   8   3   10.61    3.50
   5   8   4    7.29    2.94
   5   8   4   11.74    3.76
   5   8   5   68.82    6.96
   5   8   6  104.91    8.72
   5   8   7   29.48    5.74
   5   8   8   11.81    3.89
   5   8   9   98.74    8.93
   5   9   2    6.66    3.14
   5   9   3  101.95    8.48
   5   9   3  108.87    8.85
   5   9   4   66.63    7.13
   5   9   4   68.38    7.08
   5   9   5   36.12    6.34
   5   9   5   47.46    5.92
   5   9   6    2.62    2.59
   5   9   6    7.91    3.34
   5   9   7  102.60    9.22
  -6   7   5   95.74    8.18
   6  -7  -5   92.55    8.28
  -6   7   4   71.92    7.20
  -6   7   3    0.66    1.74
  -6   7   2   53.02    6.39
  -6   7   1   70.62    7.31
  -6   7   0   15.00    4.49
  -6   7  -1    0.44    2.08
   6  -6  -6   18.04    4.67
   6  -6  -5   14.55    4.14
  -6   6   4  107.74    8.30
   6  -6  -4  101.89    8.06
  -6   6   3   97.92    7.99
  -6   6   2   38.37    6.15
  -6   6   1    8.92    3.26
  -6   6   0   16.15    4.09
  -6   6  -1   87.36    8.04
  -6   6  -2   66.43    7.27
  -6   6  -3    2.19    2.62
   6  -5  -7    0.36    1.83
   6  -5  -6   47.86    7.00
   6  -5  -5  252.36   12.57
  -6   5   4   21.51    4.34
   6  -5  -4   21.94    4.46
  -6   5   3    1.97    1.90
   6  -5  -3    3.85    2.37
  -6   5   2   27.89    4.95
  -6   5   1   72.07    6.75
  -6   5   0   94.85    7.82
  -6   5  -1   15.47    3.88
  -6   5  -2   36.66    6.09
  -6   5  -3   41.24    6.51
  -6   5  -4  225.29   12.88
  -6   5  -5    1.79    2.79
   6  -4  -8   28.06    5.91
   6  -4  -7   97.84    8.61
   6  -4  -6   75.13    7.28
   6  -4  -5    3.55    2.31
   6  -4  -4   32.77    5.25
  -6   4   3   93.74    7.10
   6  -4  -3   89.38    6.83
  -6   4   2   89.34    7.00
  -6   4   1   27.45    4.91
  -6   4   0    7.13    2.74
  -6   4  -1  109.80    8.23
  -6   4  -2   69.71    6.71
  -6   4  -3   23.02    4.78
  -6   4  -4   35.26    5.90
  -6   4  -5   63.99    7.03
  -6   4  -6  129.80    9.85
   6  -3  -8   66.19    7.52
   6  -3  -7    9.22    3.44
   6  -3  -6    5.82    2.64
   6  -3  -5   68.99    6.67
   6  -3  -4  122.40    8.18
  -6   3   3   35.45    4.28
   6  -3  -3   37.95    4.62
  -6   3   2   11.66    3.10
   6  -3  -2   15.56    3.45
  -6   3   1   97.50    7.12
  -6   3   0  248.70   11.49
  -6   3  -1   42.83    5.01
  -6   3  -2   24.00    4.53
  -6   3  -3   79.05    7.03
  -6   3  -4   66.82    6.63
  -6   3  -5   28.64    5.35
  -6   3  -5   31.81    5.14
  -6   3  -6   -0.03    1.85
  -6   3  -6    0.95    1.96
  -6   3  -7   32.80    5.90
  -6   3  -7   50.93    6.16
   6  -2  -8    6.22    3.18
   6  -2  -7   72.12    7.29
   6  -2  -6   50.37    6.04
   6  -2  -5   10.03    3.41
   6  -2  -4    2.66    2.02
   6  -2  -3  148.08    8.58
  -6   2   2  237.86   10.28
   6  -2  -2  251.83   10.43
  -6   2   1   76.72    6.06
   6  -2  -1   83.45    5.75
  -6   2   0    2.62    1.93
  -6   2  -1  106.77    7.52
  -6   2  -2  167.89    9.58
  -6   2  -3   40.99    5.04
  -6   2  -4    6.72    2.72
  -6   2  -5   81.34    7.32
  -6   2  -6  132.39    9.43
  -6   2  -6  144.63    9.31
  -6   2  -7   85.10    7.76
  -6   2  -7   91.27    7.89
  -6   2  -8   28.65    5.59
  -6   2  -8   27.75    5.69
   6  -1  -8   95.02    8.79
   6  -1  -7   25.60    5.29
   6  -1  -6    6.71    3.00
   6  -1  -5   52.88    5.91
   6  -1  -4  151.05    9.16
   6  -1  -3   33.51    5.15
  -6   1   2   -0.02    1.15
   6  -1  -2   -0.39    0.87
   6  -1  -2    0.97    1.36
  -6   1   1  111.59    7.06
   6  -1  -1  126.71    7.06
  -6   1   0  122.56    7.53
  -6   1  -1   61.37    5.62
  -6   1  -2   -0.49    1.08
  -6   1  -3   74.76    6.50
  -6   1  -4  168.21    9.82
  -6   1  -5  136.18    9.06
  -6   1  -6    8.78    3.12
  -6   1  -7   27.39    5.28
  -6   1  -7   27.65    5.15
  -6   1  -8   96.20    8.35
   6  -1   8   94.78    8.23
  -6   1  -9   49.50    7.42
   6  -1   9   60.35    6.72
   6   0  -7   98.35    8.73
   6   0  -6   90.94    8.07
   6   0  -5   90.71    6.95
   6   0  -5   81.52    7.27
   6   0  -4   -0.85    1.13
   6   0  -3   69.10    5.83
  -6   0   2  164.99    7.98
   6   0  -2  191.81    9.07
  -6   0   1   64.71    5.35
   6   0  -1   75.10    5.79
  -6   0   0    0.12    1.20
  -6   0  -1   69.85    5.85
  -6   0  -2  213.15   10.23
  -6   0  -3  179.32    9.64
  -6   0  -4   65.64    6.10
  -6   0  -5    9.25    3.08
   6   0   6   90.59    7.43
   6   0   7   99.81    8.08
   6   0   8    2.86    2.26
  -6   0  -9   15.13    4.44
   6   0   9   12.00    3.71
   6   1  -7    7.49    3.16
   6   1  -6   26.73    5.03
   6   1  -5   20.66    4.33
   6   1  -4  148.68    8.94
   6   1  -3   74.09    6.28
   6   1  -2    2.80    1.88
   6   1  -1  132.33    7.31
   6   1  -1  148.01    8.37
   6   1   0  189.68    9.00
   6   1   1  497.14   14.88
   6   1   2    2.24    1.75
   6   1   3    0.75    1.61
   6   1   4   46.47    5.09
   6   1   5  132.70    8.76
   6   1   6   37.44    5.77
   6   1   7   23.69    4.74
   6   1   8   97.85    8.19
   6   1   9   81.06    7.66
  -6  -1 -10   77.14    8.00
   6   1  10   71.39    7.35
   6   2  -6   75.04    7.35
   6   2  -5   86.16    7.49
   6   2  -4   13.46    3.59
   6   2  -3   65.84    6.27
   6   2  -2  185.83    9.94
   6   2  -1  140.53    7.50
   6   2  -1  166.18    9.22
   6   2   0   72.88    5.68
   6   2   1   59.97    5.38
   6   2   2   40.97    4.68
   6   2   3  168.53    9.25
   6   2   4   19.08    4.02
   6   2   5    1.58    1.90
   6   2   6   99.88    7.78
   6   2   7  131.35    9.08
   6   2   8   25.16    4.93
   6   2   9   10.27    3.37
   6   2  10  107.27    8.91
   6   3  -6   16.22    4.47
   6   3  -5   27.71    5.50
   6   3  -4  110.18    8.49
   6   3  -3  174.63   10.39
   6   3  -2   35.69    5.55
   6   3  -1   10.60    3.23
   6   3   0   57.32    5.11
   6   3   0   71.29    6.38
   6   3   1  121.94    7.48
   6   3   2   84.96    6.55
   6   3   3    0.10    1.57
   6   3   4  105.07    7.63
   6   3   5  154.16    9.42
   6   3   6   68.88    6.54
   6   3   7   -1.43    1.34
   6   3   8   29.78    5.41
   6   3   9   88.24    7.92
   6   3  10   14.63    4.24
   6   4  -5  108.29    9.25
   6   4  -4   26.29    5.24
   6   4  -3    4.33    2.71
   6   4  -2   49.07    5.71
   6   4  -1  112.25    8.33
   6   4   0   41.01    4.51
   6   4   0   44.21    5.29
   6   4   1    3.19    2.02
   6   4   1    0.88    1.73
   6   4   2   74.41    6.30
   6   4   3  204.16   10.36
   6   4   4  141.28    8.90
   6   4   5   14.89    3.75
   6   4   6   96.96    7.86
   6   4   7   69.59    6.81
   6   4   8   38.47    6.33
   6   4   9    3.00    2.76
   6   4  10   36.48    6.40
   6   5  -4   56.38    6.97
   6   5  -3   72.92    7.47
   6   5  -2   43.45    6.68
   6   5  -1    1.33    1.82
   6   5   0   52.46    6.05
   6   5   1  138.03    8.38
   6   5   1  148.42    9.69
   6   5   2   98.95    7.28
   6   5   3    4.55    2.36
   6   5   4   30.49    5.23
   6   5   5   99.86    7.93
   6   5   6   48.62    5.86
   6   5   7   -0.24    1.51
   6   5   8   28.15    5.43
   6   5   9  105.36    8.93
   6   5  10   93.58    8.78
   6   6  -3    8.96    3.82
   6   6  -2   26.85    5.78
   6   6  -1  103.87    8.75
   6   6   0   97.51    8.37
   6   6   1   16.45    4.29
   6   6   2   50.33    5.61
   6   6   2   70.25    6.95
   6   6   3   75.92    6.90
   6   6   4   81.92    7.34
   6   6   5    1.08    1.99
   6   6   6   10.82    3.51
   6   6   7   79.31    7.72
   6   6   8   96.27    8.63
   6   6   9   23.05    5.44
   6   7  -1    0.17    1.84
   6   7   0    7.22    3.23
   6   7   1   80.40    7.75
   6   7   2   88.30    7.52
   6   7   2   98.90    8.47
   6   7   3    8.34    3.32
   6   7   3    7.36    3.05
   6   7   4   34.67    5.90
   6   7   5   67.23    6.95
   6   7   6   99.32    8.63
   6   7   7   50.08    7.53
   6   7   8    5.73    3.25
   6   8   2    9.60    3.83
   6   8   3   58.73    6.53
   6   8   3   62.57    7.15
   6   8   4   74.77    7.54
   6   8   4   97.85    8.66
   6   8   5   28.44    5.82
   6   8   6    0.21    2.23
  -7   5   3   88.52    7.74
  -7   5   2   49.19    5.89
  -7   5   1   27.20    5.41
  -7   5   0    8.63    3.31
  -7   5  -1   59.26    6.83
  -7   5  -2   83.51    8.23
   7  -4  -5   94.35    8.19
   7  -4  -4   69.13    6.85
  -7   4   3    3.00    2.08
  -7   4   2   15.71    3.94
  -7   4   1   53.46    6.11
  -7   4   0  141.12    9.77
  -7   4  -1   63.43    6.76
  -7   4  -2    2.34    2.06
  -7   4  -3   13.45    4.10
  -7   4  -4  145.68   10.82
   7  -3  -6   69.30    7.47
   7  -3  -5   20.44    4.76
   7  -3  -4    2.50    2.23
  -7   3   2   86.34    7.13
  -7   3   1   47.70    5.56
  -7   3   0    1.13    1.84
  -7   3  -1   19.67    4.40
  -7   3  -2  151.58   10.14
  -7   3  -3   85.93    7.83
  -7   3  -4    2.06    2.24
  -7   3  -5   37.92    6.72
   7  -2  -6   -0.92    1.67
   7  -2  -5   33.95    6.04
   7  -2  -4   85.74    7.44
   7  -2  -3   89.16    7.29
  -7   2   2    2.19    1.86
  -7   2   1   60.57    5.99
  -7   2   0  127.74    8.69
  -7   2  -1  106.59    8.20
  -7   2  -2    3.51    2.25
  -7   2  -3   31.22    5.56
  -7   2  -4   88.47    7.93
  -7   2  -5   54.36    6.61
  -7   2  -6   18.82    4.90
   7  -1  -6   86.24    8.17
   7  -1  -5   37.83    6.34
   7  -1  -4    7.58    2.98
   7  -1  -3   54.44    5.90
   7  -1  -2  108.65    7.66
  -7   1   1   97.12    7.25
  -7   1   0   14.43    3.59
  -7   1  -1   50.75    5.67
  -7   1  -2  144.07    9.36
  -7   1  -3  125.70    9.01
  -7   1  -4   39.51    6.17
  -7   1  -5   -0.05    1.65
  -7   1  -6   50.56    7.35
  -7   1  -7   39.44    6.81
   7  -1   7   47.40    7.27
   7   0  -5   35.65    6.21
   7   0  -4  144.66    9.80
   7   0  -3   38.87    5.87
   7   0  -2   14.42    3.46
   7   0  -2   18.16    3.96
   7   0  -1    2.66    1.87
   7   0  -1    4.45    2.20
   7   0  -1    3.08    1.91
  -7   0   0   81.42    6.70
   7   0   0   81.99    6.73
  -7   0  -1  162.00    9.53
  -7   0  -2   38.00    5.76
  -7   0  -3    6.82    2.75
  -7   0  -4   37.36    5.99
   7   0   4   33.18    5.63
   7   0   5  154.55   10.31
   7   0   6    8.10    3.18
   7   0   7   11.91    3.86
   7   0   8   65.10    7.57
   7   1  -5   81.91    7.53
   7   1  -4   57.33    6.14
   7   1  -3    4.10    2.51
   7   1  -2   68.19    6.40
   7   1  -1  111.56    7.97
   7   1   0   63.27    5.89
   7   1   1    2.17    1.94
   7   1   2   62.50    6.11
   7   1   3  112.13    8.24
   7   1   4   43.99    6.45
   7   1   5    3.49    2.16
   7   1   6   34.45    5.97
   7   1   7  112.62    9.09
   7   1   8   32.87    6.36
   7   2  -5    2.16    2.41
   7   2  -4   62.22    6.85
   7   2  -3  164.49   10.34
   7   2  -2   63.75    6.54
   7   2  -1    1.99    1.76
   7   2   0   71.98    6.22
   7   2   0   86.26    7.30
   7   2   1  119.24    8.14
   7   2   2   35.47    5.58
   7   2   3    9.30    3.11
   7   2   4   44.47    5.51
   7   2   5  115.66    8.85
   7   2   6   77.44    7.46
   7   2   7   14.39    3.98
   7   2   8   13.57    4.09
   7   3  -4   52.59    7.63
   7   3  -3   -0.42    1.78
   7   3  -2   20.67    4.70
   7   3  -1  196.92   11.33
   7   3   0   39.60    6.16
   7   3   1    9.34    3.13
   7   3   2   29.73    5.12
   7   3   3   67.12    6.50
   7   3   4   75.16    7.00
   7   3   5    8.88    3.19
   7   3   6   37.23    6.22
   7   3   7   69.55    7.25
   7   3   8   68.83    7.49
   7   4  -3   94.74    8.65
   7   4  -2   83.50    7.93
   7   4  -1    4.79    2.83
   7   4   0   14.47    4.09
   7   4   1   63.00    6.08
   7   4   1   73.73    7.28
   7   4   2   52.42    5.84
   7   4   3   16.85    4.21
   7   4   4   13.75    3.75
   7   4   5  151.01   10.19
   7   4   6   77.46    7.66
   7   4   7   23.08    5.14
   7   4   8   20.53    5.20
   7   5  -1   44.54    6.99
   7   5   0   70.47    7.47
   7   5   1   17.64    4.43
   7   5   2   16.75    4.11
   7   5   2   21.71    4.87
   7   5   3  108.23    8.43
   7   5   4  127.51    9.33
   7   5   5   30.99    5.85
   7   5   6    9.43    3.67
   7   5   7   99.21    8.99
   7   5   8   66.89    7.64
   7   6   0    6.00    3.33
   7   6   1   53.71    7.84
   7   6   2  112.14    8.63
   7   6   2  130.20   10.07
   7   6   3    8.71    3.24
   7   6   3    7.14    2.98
   7   6   4    4.94    2.89
   7   6   5   51.68    6.40
   7   6   6   81.74    8.27
   7   6   7   35.66    6.60
  -8   3   1   16.20    4.15
  -8   3   0   81.73    7.84
  -8   3  -1   44.62    6.96
  -8   2   1   75.17    7.19
  -8   2   0    3.21    2.44
  -8   2  -1    1.79    2.04
  -8   2  -2   31.00    5.88
  -8   2  -3   58.64    7.08
  -8   1   0   27.91    5.30
  -8   1  -1   54.17    6.35
  -8   1  -2   12.56    3.88
  -8   1  -3    3.79    2.49
  -8   1  -4   51.88    7.66
   8   0  -3    0.40    1.92
   8   0   0   52.75    6.01
   8   0   1   -0.81    1.67
   8   0   2   70.68    7.18
   8   0   3   91.78    8.19
   8   0   4   49.55    7.40
   8   0   5   -0.05    1.91
   8   1  -2   25.45    5.12
   8   1  -1    1.93    2.12
   8   1   0   25.40    5.10
   8   1   1  123.11    8.94
   8   1   2   37.19    6.22
   8   1   3    4.01    2.44
   8   1   4   31.02    5.85
   8   1   5  101.85    9.06
   8   2  -1   99.70    8.57
   8   2   0  110.50    8.79
   8   2   1   -0.53    1.69
   8   2   2    1.20    2.19
   8   2   3  102.14    8.53
   8   2   4   67.41    7.31
   8   2   5    3.02    2.85
   8   3   0   26.00    5.49
   8   3   1   80.66    7.92
   8   3   2   88.65    7.90
   8   3   3    3.67    2.68
   8   3   4    1.08    2.48
   8   3   5   81.24    8.12
   8   4   1   21.12    5.13
   8   4   2   11.47    3.76
   8   4   2    4.32    2.91
   8   4   3   60.03    6.87
   8   4   4   55.86    6.77
   0   0   0    0.00    0.00
;
loop_
_space_group_symop_operation_xyz
'x, y, z'
'-x, -y, -z'
loop_
_atom_site_label
_atom_site_type_symbol
_atom_site_fract_x
_atom_site_fract_y
_atom_site_fract_z
_atom_site_U_iso_or_equiv
_atom_site_adp_type
_atom_site_occupancy
_atom_site_site_symmetry_order
_atom_site_calc_flag
_atom_site_refinement_flags_posn
_atom_site_refinement_flags_adp
_atom_site_refinement_flags_occupancy
_atom_site_disorder_assembly
_atom_site_disorder_group
Ce Ce 0.20420(4) 0.22812(3) 0.61969(2) 0.01414(7) Uani 1 1 d . . . . .
O7 O 0.2453(4) 0.0484(3) 0.4842(3) 0.0213(7) Uani 1 1 d . . . . .
O6 O 0.2945(5) 0.4591(4) -0.2940(3) 0.0292(8) Uani 1 1 d . . . . .
O3 O 0.3195(5) 0.1400(3) 0.0870(3) 0.0239(7) Uani 1 1 d . . . . .
O1 O 0.1677(5) 0.4292(4) 0.4069(3) 0.0262(8) Uani 1 1 d . . . . .
O2 O 0.0915(4) 0.6697(4) 0.2791(3) 0.0224(7) Uani 1 1 d . . . . .
O8 O 0.1077(4) -0.1450(4) 0.4439(3) 0.0281(8) Uani 1 1 d . . . . .
O10 O 0.5377(6) 0.3029(5) 0.5097(5) 0.0370(10) Uani 1 1 d . . . . .
O5 O 0.3346(5) 0.2172(4) -0.1623(3) 0.0293(8) Uani 1 1 d . . . . .
O4 O 0.1843(5) 0.7626(4) 0.0235(3) 0.0301(8) Uani 1 1 d . . . . .
O11 O 0.0440(7) 0.0008(5) 0.8083(5) 0.0450(12) Uani 1 1 d . . . . .
O9 O 0.4438(5) -0.0009(4) 0.7025(4) 0.0312(9) Uani 1 1 d . . . . .
C5 C 0.2861(6) 0.2963(5) 0.0695(4) 0.0177(9) Uani 1 1 d . . . . .
C7 C 0.2878(6) 0.4103(5) -0.0591(4) 0.0167(9) Uani 1 1 d . . . . .
C2 C 0.2108(6) 0.4928(5) 0.1703(4) 0.0161(9) Uani 1 1 d . . . . .
C9 C 0.1015(6) -0.0287(5) 0.4802(4) 0.0182(10) Uani 1 1 d . . . . .
C4 C 0.2478(6) 0.3389(5) 0.1817(4) 0.0188(10) Uani 1 1 d . . . . .
H4 H 0.246735 0.262881 0.266246 0.023 Uiso 1 1 calc R U . . .
C8 C 0.3103(6) 0.3625(5) -0.1797(4) 0.0197(10) Uani 1 1 d . . . . .
C3 C 0.2176(6) 0.6083(5) 0.0414(4) 0.0168(9) Uani 1 1 d . . . . .
C1 C 0.1543(6) 0.5323(5) 0.2948(4) 0.0168(9) Uani 1 1 d . . . . .
C6 C 0.2541(6) 0.5651(5) -0.0705(4) 0.0190(10) Uani 1 1 d . . . . .
H6 H 0.256250 0.641202 -0.155075 0.023 Uiso 1 1 calc R U . . .
H3 H 0.335(7) 0.146(6) -0.011(5) 0.050(16) Uiso 1 1 d . . . . .
H4A H 0.165(9) 0.776(7) 0.113(5) 0.08(2) Uiso 1 1 d . . . . .
H11A H -0.053(7) -0.028(6) 0.825(5) 0.026(17) Uiso 1 1 d . . . . .
H10A H 0.647(8) 0.242(7) 0.540(5) 0.050(17) Uiso 1 1 d . . . . .
H9B H 0.516(8) -0.027(6) 0.648(5) 0.047(18) Uiso 1 1 d . . . . .
H9A H 0.501(9) -0.016(8) 0.782(6) 0.08(2) Uiso 1 1 d . . . . .
H11B H 0.104(8) -0.058(7) 0.855(5) 0.043(19) Uiso 1 1 d . . . . .
H10B H 0.559(11) 0.356(8) 0.453(6) 0.08(3) Uiso 1 1 d . . . . .
loop_
_atom_site_aniso_label
_atom_site_aniso_U_11
_atom_site_aniso_U_22
_atom_site_aniso_U_33
_atom_site_aniso_U_23
_atom_site_aniso_U_13
_atom_site_aniso_U_12
Ce 0.01553(13) 0.01298(13) 0.01344(13) -0.00428(10) -0.00028(9) -0.00076(9)
O7 0.0168(17) 0.0254(18) 0.0246(17) -0.0127(15) 0.0010(14) -0.0020(14)
O6 0.042(2) 0.030(2) 0.0161(17) -0.0070(15) -0.0038(15) -0.0082(16)
O3 0.038(2) 0.0152(17) 0.0190(17) -0.0063(14) -0.0037(15) 0.0035(14)
O1 0.037(2) 0.0250(19) 0.0122(16) -0.0022(14) -0.0012(14) 0.0050(15)
O2 0.0257(18) 0.0212(18) 0.0195(16) -0.0078(14) 0.0013(14) 0.0046(14)
O8 0.0197(18) 0.031(2) 0.045(2) -0.0265(17) -0.0077(15) 0.0039(15)
O10 0.015(2) 0.030(2) 0.044(3) 0.011(2) 0.0069(18) 0.0001(17)
O5 0.047(2) 0.0210(19) 0.0237(18) -0.0111(15) -0.0093(16) 0.0040(16)
O4 0.051(2) 0.0171(18) 0.0166(17) -0.0008(15) -0.0003(16) 0.0049(16)
O11 0.024(2) 0.034(2) 0.052(3) 0.017(2) -0.002(2) -0.004(2)
O9 0.032(2) 0.038(2) 0.022(2) -0.0114(18) -0.0051(17) 0.0182(17)
C5 0.014(2) 0.016(2) 0.022(2) -0.0052(19) -0.0017(18) -0.0003(18)
C7 0.014(2) 0.020(2) 0.014(2) -0.0042(19) 0.0017(18) -0.0051(18)
C2 0.015(2) 0.018(2) 0.013(2) -0.0027(19) -0.0030(18) 0.0004(18)
C9 0.021(3) 0.020(2) 0.014(2) -0.0063(19) -0.0030(19) 0.0010(19)
C4 0.022(2) 0.019(2) 0.012(2) -0.0014(19) 0.0002(18) 0.0035(19)
C8 0.018(2) 0.028(3) 0.014(2) -0.007(2) -0.0026(18) -0.003(2)
C3 0.018(2) 0.011(2) 0.018(2) -0.0018(19) -0.0008(18) -0.0010(18)
C1 0.014(2) 0.019(2) 0.017(2) -0.007(2) -0.0020(18) 0.0022(18)
C6 0.022(2) 0.020(2) 0.009(2) 0.0014(19) 0.0000(18) -0.0032(19)
loop_
_atom_type_symbol
_atom_type_description
_atom_type_scat_dispersion_real
_atom_type_scat_dispersion_imag
_atom_type_scat_source
C C 0.0033 0.0016 'International Tables Vol C Tables 4.2.6.8 and 6.1.1.4'
H H 0.0000 0.0000 'International Tables Vol C Tables 4.2.6.8 and 6.1.1.4'
O O 0.0106 0.0060 'International Tables Vol C Tables 4.2.6.8 and 6.1.1.4'
Ce Ce -0.2486 2.6331 'International Tables Vol C Tables 4.2.6.8 and 6.1.1.4'
loop_
_geom_angle_atom_site_label_1
_geom_angle_atom_site_label_2
_geom_angle_atom_site_label_3
_geom_angle
_geom_angle_site_symmetry_1
_geom_angle_site_symmetry_3
O1 Ce O10 73.27(13) . .
O1 Ce O2 89.96(10) . 2_566
O10 Ce O2 141.93(12) . 2_566
O1 Ce O7 84.38(10) . .
O10 Ce O7 81.14(13) . .
O2 Ce O7 132.02(10) 2_566 .
O1 Ce O11 145.83(14) . .
O10 Ce O11 137.42(15) . .
O2 Ce O11 72.16(13) 2_566 .
O7 Ce O11 86.56(13) . .
O1 Ce O8 78.45(11) . 2_556
O10 Ce O8 136.28(13) . 2_556
O2 Ce O8 68.86(10) 2_566 2_556
O7 Ce O8 63.31(9) . 2_556
O11 Ce O8 68.06(14) . 2_556
O1 Ce O5 134.91(11) . 1_556
O10 Ce O5 86.78(14) . 1_556
O2 Ce O5 81.42(10) 2_566 1_556
O7 Ce O5 132.77(10) . 1_556
O11 Ce O5 72.28(14) . 1_556
O8 Ce O5 135.89(11) 2_556 1_556
O1 Ce O9 134.37(11) . .
O10 Ce O9 69.58(13) . .
O2 Ce O9 135.63(11) 2_566 .
O7 Ce O9 64.76(11) . .
O11 Ce O9 68.28(14) . .
O8 Ce O9 112.15(12) 2_556 .
O5 Ce O9 68.22(11) 1_556 .
O1 Ce O6 86.58(10) . 1_556
O10 Ce O6 76.44(13) . 1_556
O2 Ce O6 68.48(10) 2_566 1_556
O7 Ce O6 157.42(10) . 1_556
O11 Ce O6 111.94(13) . 1_556
O8 Ce O6 134.56(10) 2_556 1_556
O5 Ce O6 49.05(10) 1_556 1_556
O9 Ce O6 108.95(11) . 1_556
O1 Ce C8 111.18(12) . 1_556
O10 Ce C8 85.08(14) . 1_556
O2 Ce C8 69.18(11) 2_566 1_556
O7 Ce C8 155.26(11) . 1_556
O11 Ce C8 89.86(15) . 1_556
O8 Ce C8 136.84(10) 2_556 1_556
O5 Ce C8 25.18(11) 1_556 1_556
O9 Ce C8 91.20(12) . 1_556
O6 Ce C8 24.61(10) 1_556 1_556
C9 O7 Ce 119.2(3) . .
C8 O6 Ce 90.4(3) . 1_554
C5 O3 H3 100(3) . .
C1 O1 Ce 178.0(3) . .
C1 O2 Ce 132.3(3) . 2_566
C9 O8 Ce 118.9(3) . 2_556
Ce O10 H10A 122(3) . .
Ce O10 H10B 126(7) . .
H10A O10 H10B 111(7) . .
C8 O5 Ce 96.6(3) . 1_554
C3 O4 H4A 109(4) . .
Ce O11 H11A 133(4) . .
Ce O11 H11B 120(5) . .
H11A O11 H11B 106(6) . .
Ce O9 H9B 120(4) . .
Ce O9 H9A 119(4) . .
H9B O9 H9A 112(5) . .
C4 C5 O3 118.7(4) . .
C4 C5 C7 120.0(4) . .
O3 C5 C7 121.3(4) . .
C6 C7 C5 118.8(4) . .
C6 C7 C8 121.2(4) . .
C5 C7 C8 119.9(4) . .
C4 C2 C3 119.1(4) . .
C4 C2 C1 119.4(4) . .
C3 C2 C1 121.5(4) . .
O8 C9 O7 126.3(4) . .
O8 C9 C9 116.9(5) . 2_556
O7 C9 C9 116.8(5) . 2_556
C5 C4 C2 121.2(4) . .
C5 C4 H4 119.4 . .
C2 C4 H4 119.4 . .
O6 C8 O5 120.3(4) . .
O6 C8 C7 121.3(4) . .
O5 C8 C7 118.2(4) . .
O6 C8 Ce 64.9(2) . 1_554
O5 C8 Ce 58.3(2) . 1_554
C7 C8 Ce 158.6(3) . 1_554
O4 C3 C6 118.6(4) . .
O4 C3 C2 121.9(4) . .
C6 C3 C2 119.6(4) . .
O1 C1 O2 123.6(4) . .
O1 C1 C2 119.1(4) . .
O2 C1 C2 117.3(4) . .
C3 C6 C7 121.4(4) . .
C3 C6 H6 119.3 . .
C7 C6 H6 119.3 . .
loop_
_geom_bond_atom_site_label_1
_geom_bond_atom_site_label_2
_geom_bond_distance
_geom_bond_site_symmetry_2
Ce O1 2.410(3) .
Ce O10 2.482(4) .
Ce O2 2.498(3) 2_566
Ce O7 2.538(3) .
Ce O11 2.540(4) .
Ce O8 2.560(3) 2_556
Ce O5 2.566(3) 1_556
Ce O9 2.569(3) .
Ce O6 2.715(3) 1_556
Ce C8 2.997(4) 1_556
O7 C9 1.263(5) .
O6 C8 1.248(5) .
O3 C5 1.390(5) .
O3 H3 1.03(5) .
O1 C1 1.252(5) .
O2 C1 1.271(5) .
O8 C9 1.254(5) .
O10 H10A 0.94(6) .
O10 H10B 0.63(6) .
O5 C8 1.283(5) .
O4 C3 1.371(5) .
O4 H4A 1.00(5) .
O11 H11A 0.71(5) .
O11 H11B 0.74(5) .
O9 H9B 0.82(5) .
O9 H9A 0.94(6) .
C5 C4 1.383(5) .
C5 C7 1.409(6) .
C7 C6 1.391(6) .
C7 C8 1.494(5) .
C2 C4 1.386(6) .
C2 C3 1.414(5) .
C2 C1 1.507(5) .
C9 C9 1.539(8) 2_556
C4 H4 0.9300 .
C3 C6 1.383(5) .
C6 H6 0.9300 .
loop_
_geom_hbond_atom_site_label_D
_geom_hbond_atom_site_label_H
_geom_hbond_atom_site_label_A
_geom_hbond_distance_DH
_geom_hbond_distance_HA
_geom_hbond_distance_DA
_geom_hbond_angle_DHA
_geom_hbond_site_symmetry_A
C4 H4 O7 0.93 2.47 3.400(5) 176.4 .
O3 H3 O5 1.03(5) 1.52(5) 2.506(4) 158(5) .
O4 H4A O2 1.00(5) 1.74(6) 2.583(4) 140(6) .
O11 H11A O3 0.71(5) 2.11(5) 2.815(6) 168(6) 2_556
O10 H10A O8 0.94(6) 1.87(6) 2.784(5) 165(5) 2_656
O9 H9B O7 0.82(5) 2.10(5) 2.891(4) 164(6) 2_656
O9 H9A O3 0.94(6) 1.98(6) 2.827(5) 148(5) 2_656
O11 H11B O4 0.74(5) 2.08(5) 2.791(5) 161(6) 1_546
O10 H10B O6 0.63(6) 2.14(7) 2.755(5) 162(9) 2_665
