#------------------------------------------------------------------------------
#$Date: 2022-09-27 12:43:06 +0300 (Tue, 27 Sep 2022) $
#$Revision: 278217 $
#$URL: file:///home/coder/svn-repositories/cod/cif/8/10/58/8105886.cif $
#------------------------------------------------------------------------------
#
# This file is available in the Crystallography Open Database (COD),
# http://www.crystallography.net/
#
# All data on this site have been placed in the public domain by the
# contributors.
#
data_8105886
loop_
_publ_author_name
'Reiss, Guido J.'
_publ_section_title
;
 Halogen and hydrogen bonding in the layered crystal structure of
 2-iodoanilinium triiodide, C6H7I4N
;
_journal_issue                   5
_journal_name_full
'Zeitschrift f\"ur Kristallographie - New Crystal Structures'
_journal_page_first              899
_journal_page_last               902
_journal_paper_doi               10.1515/ncrs-2019-0127
_journal_volume                  234
_journal_year                    2019
_chemical_formula_sum            'C6 H7 I4 N'
_chemical_formula_weight         600.73
_chemical_name_common            '2-iodoanilinium triiodide'
_chemical_name_systematic        '2-iodobenzenaminium triiodide'
_space_group_crystal_system      monoclinic
_space_group_IT_number           11
_space_group_name_Hall           '-P 2yb'
_space_group_name_H-M_alt        'P 1 21/m 1'
_atom_sites_solution_hydrogens   difmap
_atom_sites_solution_primary     direct
_atom_sites_solution_secondary   difmap
_audit_creation_method           SHELXL-2018/3
_cell_angle_alpha                90
_cell_angle_beta                 114.051(3)
_cell_angle_gamma                90
_cell_formula_units_Z            2
_cell_length_a                   9.2818(2)
_cell_length_b                   6.55289(16)
_cell_length_c                   11.0561(3)
_cell_measurement_reflns_used    3629
_cell_measurement_temperature    109
_cell_measurement_theta_max      32.67
_cell_measurement_theta_min      3.10
_cell_volume                     614.08(3)
_computing_cell_refinement
;
CrysAlisPro, Oxford Diffraction Ltd.,
Version 1.171.34.44 (release 25-10-2010 CrysAlis171 .NET)
;
_computing_data_collection
;
CrysAlisPro, Oxford Diffraction Ltd.,
Version 1.171.34.44 (release 25-10-2010 CrysAlis171 .NET)
;
_computing_data_reduction
;
CrysAlisPro, Oxford Diffraction Ltd.,
Version 1.171.34.44 (release 25-10-2010 CrysAlis171 .NET)
;
_computing_molecular_graphics    'DIAMOND 4.52(Brandenburg, 2018)'
_computing_structure_refinement  'SHELXL-2018/3 (Sheldrick, 2018)'
_computing_structure_solution    'SHELX (Sheldrick, 2008)'
_diffrn_ambient_temperature      109
_diffrn_detector_area_resol_mean 16.2711
_diffrn_measured_fraction_theta_full 0.998
_diffrn_measured_fraction_theta_max 0.998
_diffrn_measurement_device_type  'Xcalibur, Eos'
_diffrn_measurement_method       '\w scans'
_diffrn_radiation_type           MoK\a
_diffrn_radiation_wavelength     0.71073
_diffrn_reflns_av_R_equivalents  0.0344
_diffrn_reflns_av_unetI/netI     0.0263
_diffrn_reflns_Laue_measured_fraction_full 0.998
_diffrn_reflns_Laue_measured_fraction_max 0.998
_diffrn_reflns_limit_h_max       11
_diffrn_reflns_limit_h_min       -11
_diffrn_reflns_limit_k_max       8
_diffrn_reflns_limit_k_min       -8
_diffrn_reflns_limit_l_max       14
_diffrn_reflns_limit_l_min       -14
_diffrn_reflns_number            6606
_diffrn_reflns_point_group_measured_fraction_full 0.998
_diffrn_reflns_point_group_measured_fraction_max 0.998
_diffrn_reflns_theta_full        26.997
_diffrn_reflns_theta_max         26.997
_diffrn_reflns_theta_min         3.707
_diffrn_source                   'Enhance (Mo) X-ray Source'
_exptl_absorpt_coefficient_mu    10.101
_exptl_absorpt_correction_T_max  0.946
_exptl_absorpt_correction_T_min  0.210
_exptl_absorpt_correction_type   gaussian
_exptl_absorpt_process_details
;
CrysAlisPro, Agilent Technologies,
Version 1.171.35.21 (release 20-01-2012 CrysAlis171 .NET)
Numerical absorption correction based on gaussian integration over
a multifaceted crystal model
;
_exptl_crystal_colour            orange
_exptl_crystal_density_diffrn    3.249
_exptl_crystal_description       plate
_exptl_crystal_F_000             524
_exptl_crystal_size_max          0.2531
_exptl_crystal_size_mid          0.1333
_exptl_crystal_size_min          0.0096
_refine_diff_density_max         0.627
_refine_diff_density_min         -0.841
_refine_diff_density_rms         0.142
_refine_ls_extinction_coef       0.00085(11)
_refine_ls_extinction_expression Fc^*^=kFc[1+0.001xFc^2^\l^3^/sin(2\q)]^-1/4^
_refine_ls_extinction_method     'SHELXL-2018/3 (Sheldrick 2018)'
_refine_ls_goodness_of_fit_ref   0.986
_refine_ls_hydrogen_treatment    mixed
_refine_ls_matrix_type           full
_refine_ls_number_parameters     76
_refine_ls_number_reflns         1466
_refine_ls_number_restraints     4
_refine_ls_restrained_S_all      0.985
_refine_ls_R_factor_all          0.0234
_refine_ls_R_factor_gt           0.0180
_refine_ls_shift/su_max          0.001
_refine_ls_shift/su_mean         0.000
_refine_ls_structure_factor_coef Fsqd
_refine_ls_weighting_details
'w=1/[\s^2^(Fo^2^)+(0.0150P)^2^] where P=(Fo^2^+2Fc^2^)/3'
_refine_ls_weighting_scheme      calc
_refine_ls_wR_factor_gt          0.0351
_refine_ls_wR_factor_ref         0.0367
_reflns_Friedel_coverage         0.000
_reflns_Friedel_fraction_full    .
_reflns_Friedel_fraction_max     .
_reflns_number_gt                1296
_reflns_number_total             1466
_reflns_threshold_expression     'I > 2\s(I)'
_cod_data_source_file            suppl_ncrs-2019-0127_suppl.cif
_cod_data_source_block           exp_1027_109
_cod_original_sg_symbol_H-M      'P 21/m'
_cod_database_code               8105886
_shelx_shelxl_version_number     2018/3
_shelx_space_group_comment
;
The symmetry employed for this shelxl refinement is uniquely defined
by the following loop, which should always be used as a source of
symmetry information in preference to the above space-group names.
They are only intended as comments.
;
_shelx_res_file
;
TITL exp_1027_100_a.res in P2(1)/m
    exp_1027_100.res
    created by SHELXL-2018/3 at 17:32:11 on 15-Feb-2019
REM Old TITL exp_1027_100 in P2(1)/m

REM SHELXT solution in P2(1)/m
REM R1 0.048,  Rweak 0.003,  Alpha 0.017,  Orientation as input
REM Formula found by SHELXT:  C6 N I4

CELL  0.71073   9.2818   6.55289  11.0561   90.000  114.051   90.000
ZERR    2.000   0.0002   0.00016   0.0003    0.000    0.003    0.000
LATT  1
SYMM -X, 1/2+Y, -Z
SFAC C H N I
UNIT 12 14 2 8
OMIT -3 54
L.S. 10
BOND $H
LIST 4
HTAB

HTAB N1 I2
EQIV $1 -x+2, -y, -z+1
HTAB N1 I2_$1

EQIV $2 1+x, y, z

RTAB I..I I2 I4_$2

RTAB I.I.I I3 I2 I4_$2

RTAB IcI I4 I3 I2 I4_$2

FMAP 2
CONF

PLAN -5
ACTA 54

WGHT    0.015000
EXTI    0.000846
FVAR       2.45502   0.89768   1.98660   0.03350
I1    4    0.880986    0.250000    0.031352    10.50000    0.02212    0.02797 =
         0.01836    0.00000    0.01196    0.00000
N1    3    0.856252    0.250000    0.317453    10.50000    0.02023    0.01645 =
         0.01210    0.00000    0.00661    0.00000
H11   2    0.848733    0.250000    0.395685    10.50000   41.00000
H12   2    0.911344    0.138041    0.315445    11.00000   41.00000
DFIX 21 0.01 N1 H11 N1 H12
DFIX 31 0.01 H11 C1 H12 C1
C1    1    0.698136    0.250000    0.206853    10.50000    0.02088    0.00846 =
         0.01466    0.00000    0.00479    0.00000
C2    1    0.683578    0.250000    0.078607    10.50000    0.01862    0.00935 =
         0.01459    0.00000    0.00785    0.00000
C3    1    0.533504    0.250000   -0.024260    10.50000    0.02429    0.01212 =
         0.01055    0.00000    0.00465    0.00000
AFIX  43
H3    2    0.522156    0.250000   -0.111808    10.50000   -1.20000
AFIX   0
C4    1    0.401849    0.250000    0.004012    10.50000    0.01564    0.00901 =
         0.02498    0.00000   -0.00084    0.00000
AFIX  43
H4    2    0.301644    0.250000   -0.064539    10.50000   -1.20000
AFIX   0
C5    1    0.418776    0.250000    0.134823    10.50000    0.02269    0.01212 =
         0.03337    0.00000    0.01529    0.00000
AFIX  43
H5    2    0.329780    0.250000    0.153573    10.50000   -1.20000
AFIX   0

C6    1    0.566330    0.250000    0.236465    10.50000    0.02550    0.00941 =
         0.01860    0.00000    0.01372    0.00000
AFIX  43
H6    2    0.577935    0.250000    0.324080    10.50000   -1.20000

AFIX   0

I2    4    0.958983    0.250000    0.672900    10.50000    0.01101    0.01661 =
         0.01567    0.00000    0.00583    0.00000
I3    4    0.604186    0.250000    0.622119    10.50000    0.01188    0.01645 =
         0.01264    0.00000    0.00587    0.00000
I4    4    0.287328    0.250000    0.581945    10.50000    0.01086    0.01620 =
         0.01916    0.00000    0.00580    0.00000
HKLF 4




REM  exp_1027_100_a.res in P2(1)/m
REM wR2 = 0.0367, GooF = S = 0.986, Restrained GooF = 0.985 for all data
REM R1 = 0.0180 for 1296 Fo > 4sig(Fo) and 0.0234 for all 1466 data
REM 76 parameters refined using 4 restraints

END

WGHT      0.0135      0.0000

REM Instructions for potential hydrogen bonds
HTAB N1 I2
HTAB N1 I2_$1
EQIV $4 x, y, z-1
HTAB C3 I3_$4
HTAB C3 I4_$4
HTAB C6 I3

REM Highest difference peak  0.627,  deepest hole -0.841,  1-sigma level  0.142
Q1    1   0.9373  0.1670  0.1169  11.00000  0.05    0.63
Q2    1   0.2936  0.1076  0.5640  11.00000  0.05    0.58
Q3    1   0.3393  0.1667  0.6713  11.00000  0.05    0.57
Q4    1   0.4447  0.2500  0.6006  10.50000  0.05    0.55
Q5    1   0.6867  0.2500  0.7017  10.50000  0.05    0.53
;
_shelx_res_checksum              80253
_shelx_hkl_file
;
   0   0  -2 42292.4 955.354   2
   0   0   2 44301.7 748.124   8
   0   0   3 321301. 4020.60   8
   0   0  -3 320872. 4520.89   2
   0   0  -4 39852.4 1226.92   2
   0   0   4 39918.2 873.571   8
   0   0  -5 72418.6 1888.85   2
   0   0   5 70125.8 1344.40   8
   0   0  -6 2832.46 410.086   2
   0   0  -6 2746.01 344.733   6
   0   0   6 3499.79 279.082   8
   0   0  -7 671.781 235.692   6
   0   0  -7 755.723 277.995   4
   0   0   7 700.538 173.048   8
   0   0  -7 1007.81 304.702   2
   0   0  -8 965.682 347.559   2
   0   0  -8 1282.34 384.455   4
   0   0  -8 1101.08 309.865   6
   0   0  -9 319.556 316.203   2
   0   0  -9 382.890 253.184   6
   0   0  -9 307.852 314.491   4
   0   0 -10 279.052 315.248   2
   0   0 -10 396.201 395.941   4
   0   0 -11 21831.5 1523.26   4
   0   0 -11 22290.5 1559.58   2
   0   0 -12 226.465 390.152   2
   0   0 -13 414.946 416.966   2
   0   0 -14 6743.61 1026.60   2
   0  -1   0 479.849 80.6712   3
   0  -1   0 410.006 124.264   9
   0   1   0 555.667 115.294   7
   0   1  -1 110911. 1680.56   7
   0  -1  -1 114868. 1871.84   9
   0  -1  -1 116536. 1676.55   2
   0  -1  -1 110624. 1746.97   4
   0   1  -1 115474. 1684.37   2
   0  -1  -2 472952. 6120.17   4
   0   1  -2 493681. 6129.77   2
   0   1   2 482244. 5716.71   1
   0  -1   2 480347. 6105.56   8
   0  -1  -2 486080. 6068.53   2
   0  -1  -3 60681.0 1276.57   4
   0   1  -3 59971.5 1412.91   2
   0  -1  -3 57965.9 1366.08   2
   0  -1   3 58049.0 1273.63   8
   0  -1  -4 20114.1 773.298   4
   0  -1  -4 20522.0 850.066   2
   0   1  -4 20266.7 865.579   2
   0   1   4 20382.3 876.797   8
   0  -1   4 17859.6 691.354   8
   0  -1  -4 19810.1 504.193   6
   0   1   5 80441.8 1539.76   8
   0   1  -5 80401.5 2041.05   2
   0  -1  -5 80563.5 1402.74   6
   0  -1   5 74817.7 1657.14   8
   0  -1  -5 75824.2 1826.82   4
   0  -1  -5 77842.2 1990.49   2
   0  -1  -6 516.774 151.336   6
   0  -1  -6 842.184 289.468   2
   0  -1  -6 400.989 234.946   4
   0  -1   6 280.386 160.361   8
   0   1  -6 332.853 221.985   2
   0   1   6 555.704 160.037   8
   0  -1  -7 29965.7 1269.68   4
   0   1   7 28348.4 823.929   8
   0  -1   7 28549.4 1004.47   8
   0  -1  -7 28820.6 920.064   6
   0   1  -7 28630.8 1375.78   2
   0  -1  -7 28809.8 1350.95   2
   0  -1  -8 4964.31 612.212   4
   0  -1  -8 3178.36 522.085   2
   0   1  -8 3980.19 520.093   6
   0   1  -8 4369.30 624.626   2
   0   1  -9 28256.4 1364.51   6
   0  -1  -9 28175.3 1545.43   2
   0   1  -9 26876.9 1536.18   2
   0  -1  -9 27978.6 1468.83   4
   0   1 -10 306.580 296.752   6
   0  -1 -10 231.431 280.690   2
   0   1 -10 231.524 312.508   2
   0   1 -10 283.238 373.649   4
   0  -1 -11 7510.09 901.064   2
   0   1 -11 6287.76 909.566   4
   0   1 -11 6522.31 876.474   2
   0   1 -12 6989.92 943.065   2
   0  -1  12 7077.29 884.182   3
   0   1 -12 7573.47 1031.43   4
   0  -1 -12 5721.68 848.257   2
   0  -1  13 852.456 387.357   3
   0   1 -13 749.700 407.392   2
   0  -1 -13 893.444 497.382   2
   0   1 -14 465.862 408.098   2
   0  -1 -14 458.079 368.455   2
   0  -2   0 888234. 11478.6   9
   0   2   0 867649. 11391.6   7
   0  -2   1 25500.3 935.142   9
   0  -2   1 25429.0 800.262   3
   0   2  -1 24645.5 764.359   7
   0  -2  -1 26100.5 949.650   9
   0   2   1 25417.9 1096.64   7
   0  -2  -2 28201.2 882.995   4
   0  -2   2 31886.5 899.122  10
   0  -2  -2 30268.4 1085.22   9
   0  -2  -2 29395.8 848.336   2
   0   2   2 28446.0 1056.59   7
   0   2  -2 28855.2 875.473   7
   0   2   3 227210. 3016.69   1
   0   2  -3 223800. 3555.34   7
   0  -2  -3 226937. 3507.91   2
   0  -2  -3 227581. 3839.96   4
   0   2  -3 233992. 3636.60   2
   0   2  -4 31115.6 1146.44   2
   0  -2  -4 33010.4 1112.14   2
   0  -2  -4 34210.1 1396.27   4
   0   2   4 33232.2 801.183   1
   0  -2  -5 61526.1 2250.33   4
   0   2  -5 59313.7 1777.70   2
   0  -2  -5 59760.1 1708.45   2
   0   2  -6 2802.26 424.208   2
   0  -2  -6 2588.94 418.050   2
   0  -2  -6 3052.03 567.916   4
   0   2   6 2779.69 390.066   8
   0  -2  -7 722.031 323.480   2
   0  -2  -7 271.082 395.416   4
   0   2  -7 476.259 220.073   2
   0   2  -8 426.772 261.764   2
   0  -2  -8 814.248 306.978   2
   0   2  -9 371.181 346.996   6
   0   2  -9 691.678 409.929   2
   0  -2  -9 248.969 269.001   2
   0   2 -10 577.290 334.029   6
   0  -2 -10 255.417 287.307   2
   0   2 -10 97.6963 352.329   2
   0   2 -11 18877.2 1354.79   6
   0   2 -11 18713.6 1471.64   2
   0  -2  11 17245.6 1349.48   3
   0  -2 -11 18638.0 1417.58   2
   0  -2  12-235.549 291.561   3
   0  -2 -12 267.327 345.670   2
   0   2 -12-114.565 427.320   2
   0   2 -12 207.914 487.584   4
   0  -2 -13 186.503 360.633   2
   0   2 -13 1103.27 486.845   2
   0  -2  13 753.886 455.337   3
   0   2 -14 5773.76 1009.50   2
   0  -2  14 6619.82 996.106   3
   0  -2 -14 6379.56 980.477   2
   0  -3   0 52.3342 241.049   9
   0   3   0 224.311 262.649   7
   0  -3   0 110.449 139.813   3
   0  -3   1 78301.8 1758.27   3
   0  -3  -1 74741.2 2009.24   9
   0   3  -1 73941.3 1717.33   7
   0  -3  -1 77329.3 1498.91   3
   0  -3   1 76151.0 2000.46   9
   0   3   1 71761.0 2523.59   7
   0  -3  -2 289883. 4956.79   9
   0  -3   2 302011. 4440.67  10
   0   3  -2 288964. 4436.37   7
   0  -3   2 294980. 4613.49   3
   0   3   2 297471. 5359.03   7
   0  -3  -2 297219. 4320.22   2
   0  -3   2 290872. 4878.75   9
   0  -3  -3 36710.7 1485.95   9
   0  -3   3 37734.6 1339.12   3
   0   3   3 37541.6 1501.23   7
   0   3  -3 36793.6 1204.55   7
   0  -3  -3 38355.4 1149.62   2
   0  -3   3 41687.5 1265.37  10
   0   3   4 12248.6 872.432   7
   0   3  -4 11205.8 708.132   2
   0  -3  -4 12880.6 694.565   4
   0   3   4 10889.1 415.035   1
   0  -3  -4 11743.1 668.231   2
   0   3  -5 57636.5 1800.17   2
   0  -3  -5 55073.2 1667.97   2
   0  -3  -5 54251.9 1665.66   4
   0  -3  -6 250.276 271.289   4
   0   3  -6 428.535 258.578   2
   0  -3  -6 430.006 260.019   2
   0  -3  -7 20814.7 1310.07   4
   0  -3  -7 17802.8 1073.88   2
   0   3  -7 20517.0 1208.71   2
   0   3  -8 2804.56 511.761   2
   0  -3  -8 2192.27 424.962   2
   0   3  -9 19197.0 1373.00   6
   0  -3  -9 19496.1 1286.96   2
   0   3  -9 20598.1 1388.45   2
   0  -3 -10-275.680 265.254   2
   0   3 -10 380.998 384.697   2
   0   3 -10 189.508 337.559   6
   0  -3  10 61.1045 305.236   3
   0   3 -11 5236.23 807.251   6
   0  -3 -11 4350.31 675.682   2
   0   3 -11 5672.29 862.652   2
   0  -3  11 4897.14 809.606   3
   0   3 -12 5351.21 901.918   2
   0  -3  12 3576.97 725.719   3
   0  -3 -12 5494.39 822.556   2
   0   3 -12 4985.50 821.349   6
   0   3 -13 170.337 435.364   2
   0  -3  13 602.041 469.580   3
   0  -3 -13 427.832 339.068   2
   0  -3 -14 233.657 447.190   2
   0  -3  14 973.438 482.827   3
   0  -4   0 454854. 7203.19   9
   0   4   0 459010. 6944.29   7
   0  -4   0 467581. 6456.57   3
   0   4  -1 18336.8 904.697   7
   0  -4   1 18153.7 1044.35   9
   0  -4   1 17410.1 867.653   3
   0  -4  -1 17395.9 1067.54   9
   0  -4  -1 20242.9 795.821   3
   0   4   1 18607.4 1176.26   7
   0  -4   2 14404.2 853.155   3
   0  -4  -2 15321.7 755.593   2
   0   4   2 16131.3 1443.66   7
   0  -4  -2 15039.0 1013.91   9
   0  -4   2 15404.0 992.623   9
   0   4  -2 14129.7 792.927   7
   0   4  -3 127648. 2739.23   7
   0  -4  -3 127060. 3259.54   9
   0  -4   3 127442. 3113.06   9
   0  -4   3 126883. 2927.95   3
   0   4   3 135879. 3759.00   7
   0  -4  -3 130506. 2546.97   2
   0  -4  -4 22864.3 976.823   2
   0  -4  -4 21222.5 1301.58   9
   0  -4   4 21225.5 1158.47   3
   0  -4   4 24366.5 1108.56  10
   0   4   4 23689.8 1423.44   7
   0   4  -4 21326.2 1036.78   7
   0   4   5 38715.0 1832.48   7
   0  -4   5 39612.1 1690.38   3
   0  -4  -5 37731.7 1367.15   2
   0  -4   5 38722.0 1457.16  10
   0  -4   6 1465.51 397.080  10
   0  -4  -6 876.853 264.420   4
   0  -4   6 658.569 354.232   3
   0  -4  -6 702.562 250.270   2
   0   4   6 1238.70 426.166   7
   0   4   7 356.882 397.074   7
   0  -4   7 112.185 269.365   3
   0  -4  -7 220.292 245.799   2
   0  -4  -8 788.473 321.896   2
   0  -4   8 694.232 384.001   3
   0   4  -9 320.326 377.842   6
   0  -4   9 335.360 356.059   3
   0  -4  -9 922.491 398.158   2
   0   4 -10 34.8723 425.508   6
   0  -4  10 501.032 421.472   3
   0  -4 -10 355.128 298.784   2
   0  -4 -11 12013.3 1122.77   2
   0  -4  11 12399.7 1286.87   3
   0   4 -11 11841.5 1259.42   6
   0  -4  12 206.502 386.419   3
   0   4 -12 697.038 500.398   6
   0  -4  13 1351.20 586.569   3
   0   4  13 691.822 546.386   7
   0   4 -13 937.813 518.839   6
   0  -5   0 293.043 343.704   9
   0   5   0 389.660 279.076   7
   0  -5   0 121.905 155.594   3
   0  -5   1 42430.2 1801.79   9
   0  -5  -1 44305.5 1898.14   9
   0   5  -1 44793.4 1613.47   7
   0  -5   1 42851.4 1519.45   3
   0   5   1 47025.4 1932.07   7
   0  -5   2 152737. 3365.96   3
   0  -5   2 147193. 3630.47   9
   0  -5  -2 155651. 3004.92   2
   0   5   2 155306. 4545.36   7
   0   5  -2 152550. 3271.29   7
   0  -5  -2 153491. 3874.65   9
   0   5  -3 22613.9 1132.84   7
   0   5   3 24983.7 1943.88   7
   0  -5   3 21305.3 1292.46   9
   0  -5  -3 23435.1 1434.25   9
   0  -5   3 23033.5 1248.07   3
   0  -5  -3 23184.5 978.638   2
   0  -5   4 6476.39 729.296   3
   0  -5  -4 6194.48 797.918   9
   0  -5   4 6299.66 774.145   9
   0   5  -4 5297.53 583.436   7
   0   5   4 6723.74 1051.52   7
   0   5  -5 28848.1 1382.72   7
   0   5   5 34774.8 2035.06   7
   0  -5   5 31165.2 1637.18   9
   0  -5   5 33052.2 1644.90   3
   0  -5   6-274.548 296.174   3
   0  -5   6 34.7233 279.108  10
   0   5   6-116.390 384.061   7
   0  -5   6-112.730 384.593   9
   0   5   7 11361.5 1228.88   7
   0  -5   7 10525.0 899.661  10
   0  -5   7 12723.7 1143.66   3
   0  -5   8 1217.03 415.488   3
   0   5   8 684.008 465.316   7
   0   5  -9 11719.8 1239.57   6
   0  -5   9 10984.8 1193.07   3
   0   5   9 11635.8 1281.39   7
   0  -5  10-309.617 495.900   3
   0   5 -10-310.192 412.193   6
   0   5  10-81.0064 448.820   7
   0   5  11 3393.51 897.932   7
   0  -5  11 2789.45 628.759   3
   0   5 -11 2731.13 729.256   6
   0   5 -12 2119.19 723.595   6
   0   5  12 3733.43 842.979   7
   0  -5  12 2563.15 658.866   3
   0   5 -13 133.849 488.938   6
   0   6   0 218995. 4639.48   7
   0  -6   0 223226. 5048.73   9
   0  -6   0 224472. 4236.99   3
   0  -6  -1 11587.8 1088.72   9
   0   6   1 13054.3 1064.08   7
   0  -6   1 12105.1 1078.59   9
   0  -6   1 11806.9 863.033   3
   0   6  -1 11821.5 913.167   7
   0   6   2 6839.00 896.660   7
   0  -6  -2 7095.07 868.097   9
   0  -6   2 6351.06 779.758   9
   0   6  -2 5960.38 659.611   7
   0  -6   2 4874.43 594.121   3
   0  -6  -3 63047.3 2602.51   9
   0  -6   3 67154.6 2315.39   3
   0   6  -3 60590.1 2085.48   7
   0  -6   3 57937.3 2334.71   9
   0   6   3 61129.3 3247.23   7
   0  -6   4 12882.7 1052.44   3
   0  -6  -4 12875.8 1215.07   9
   0   6   4 13186.2 1556.56   7
   0   6  -4 12706.4 958.931   7
   0  -6   4 11084.7 1030.27   9
   0  -6   5 19298.0 1362.18   3
   0  -6   5 17761.3 1308.22   9
   0   6   5 22229.4 1972.80   7
   0   6   6 821.971 715.600   7
   0  -6   6 586.591 374.339   3
   0   6   7 55.1686 477.503   7
   0  -6   7-18.7792 390.255   3
   0  -6   8 224.002 368.163   3
   0   6   8 514.897 545.469   7
   0   6  -8 1030.54 519.577   6
   0   6  -9-130.298 435.907   6
   0  -6   9-412.045 424.580   3
   0   6   9 82.0171 573.573   7
   0   6 -10 129.187 552.320   6
   0   6  10-213.190 590.531   7
   0  -6  10 333.897 372.866   3
   0   6  11 8776.87 1393.17   7
   0   6 -11 8858.83 1263.76   6
   0  -6  11 6477.82 1038.85   3
   0   7   0 102.491 296.011   7
   0  -7   0 332.936 406.095   9
   0  -7  -1 22464.9 1618.15   9
   0  -7   1 22035.1 1537.19   9
   0   7   1 18884.4 1364.90   7
   0  -7   2 76141.4 2570.71   3
   0   7   2 75827.9 2966.87   7
   0  -7   2 72152.5 2841.11   9
   0  -7  -2 73857.1 3029.16   9
   0  -7  -3 10096.2 1166.77   9
   0  -7   3 12821.6 1064.69   3
   0  -7   3 11336.3 1094.57   9
   0   7   3 11561.1 1296.39   7
   0  -7  -4 2987.55 731.533   9
   0   7   4 1243.77 825.076   7
   0  -7   4 2220.92 508.207   3
   0  -7   4 1753.35 583.901   9
   0   7   5 15324.6 1834.99   7
   0  -7   5 12963.1 1157.32   3
   0  -7   6-670.374 443.970   3
   0   7   6 263.635 675.041   7
   0   7  -6-30.7277 400.155   6
   0   7  -7 4828.43 891.090   6
   0   7   7 4772.91 1084.67   7
   0  -7   7 4825.18 861.402   3
   0  -7   8-25.6369 334.420   3
   0   7  -8 486.357 455.463   6
   0   7   8 608.717 775.546   7
   0   7  -9 6240.37 1072.79   6
   0  -7   9 6652.16 1038.05   3
   0   7   9 6466.18 1303.14   7
   0   7  10-58.9922 649.744   7
   0  -7  10-490.956 492.877   3
   0  -8   0 91471.4 3551.58   9
   0  -8  -1 7117.20 1054.47   9
   0  -8   1 8325.73 1076.90   9
   0   8  -1 7977.38 965.888   6
   0   8  -2 2070.62 556.918   6
   0  -8   2 1756.35 582.301   9
   0  -8  -2 2465.28 659.599   9
   0  -8  -3 24938.7 1914.34   9
   0  -8   3 24231.6 1747.86   9
   0   8  -3 28026.7 1878.34   6
   0  -8   4 8474.35 995.924   3
   0   8  -4 8065.56 1089.62   6
   0   8  -5 8091.97 1151.74   6
   0  -8   5 7574.09 987.209   3
   0   8   5 7993.96 1594.03   7
   0   8  -6 502.486 547.283   6
   0  -8   6 307.273 400.639   3
   0   8   6 29.2909 870.059   7
   0   8   7 1114.46 890.769   7
   0  -8   7 71.4427 414.166   3
   0   8  -7 39.7384 452.731   6
   0   8  -8 710.271 527.382   6
   0   8   8-580.449 800.167   7
   0  -8   8-546.449 477.159   3
   0  -9   0 245.451 433.929   9
   0  -9   1 10667.9 1275.57   9
   0  -9  -1 9487.07 1264.24   9
   0  -9  -2 28885.3 2157.71   9
   0   9  -3 7599.47 1084.80   6
   0   9  -4 926.526 520.742   6
   0   9  -5 5776.56 1072.23   6
   1   0 -15 3654.57 810.090   2
   1   0 -14 1181.18 506.593   2
   1   0 -13 21653.8 1696.43   2
   1   0 -12 561.393 389.043   2
   1   0 -11 11055.8 1091.41   2
   1   0 -10 71503.5 2637.83   2
   1   0 -10 64507.8 2342.87   4
   1   0  -9 65912.7 2377.46   2
   1   0  -9 62014.9 2092.58   4
   1   0  -9 60757.5 1820.92   6
   1   0  -8 149864. 3603.37   2
   1   0  -7 2898.71 447.620   2
   1   0  -6 55176.7 1760.00   2
   1   0  -5 288884. 4676.67   2
  -1   0   4 73088.3 1659.59   1
   1   0  -4 76313.9 1778.10   2
   1   0  -3 2975.59 292.055   2
   1   0  -3 2499.17 219.298   5
  -1   0   3 2636.72 278.273   1
   1   0  -2 8451.16 401.603   2
  -1   0   2 7897.50 378.312   1
   1   0  -2 7772.53 326.320   5
  -1   0  -1 44045.9 1003.11   4
   1   0   1 45395.2 844.560   3
  -1   0  -1 44457.0 915.795   2
   1   0   1 44392.9 1019.33   8
   1   0   2 326.161 113.189   3
  -1   0  -2 248.708 120.819   6
  -1   0  -2 165.764 116.881   2
  -1   0  -2 309.708 169.700   4
   1   0   2 594.205 184.115   8
  -1   0  -3 147475. 2404.19   6
   1   0   3 151322. 2483.48   8
  -1   0  -3 146517. 2673.36   4
  -1   0  -3 145956. 2600.53   2
  -1   0  -4 7461.87 559.471   4
  -1   0  -4 6978.03 470.789   6
   1   0   4 6996.56 455.292   8
  -1   0  -4 6552.57 514.997   2
  -1   0  -5 7504.73 610.565   2
  -1   0  -5 6813.09 579.792   4
  -1   0  -5 6202.57 489.218   6
   1   0   5 7132.57 495.095   8
  -1   0  -6 54558.5 1568.24   6
  -1   0  -6 56388.2 1837.83   2
   1   0   6 57665.3 1509.96   8
  -1   0  -6 57165.2 1864.05   4
   1   0   7 8315.69 580.159   8
  -1   0  -7 7879.37 737.922   2
  -1   0  -7 8018.85 620.564   6
  -1   0  -7 6789.23 686.381   4
  -1   0  -8 631.646 310.888   6
  -1   0  -8 1083.65 393.093   4
  -1   0  -8 888.854 349.714   2
   1   0   9 3469.16 496.992   3
  -1   0  -9 4534.78 646.053   2
  -1   0  -9 4506.72 675.761   4
  -1   0  -9 4128.98 481.573   6
  -1   0 -10 12607.0 1134.46   4
   1   0  10 12491.1 981.383   3
  -1   0 -10 12302.7 1114.68   2
  -1   0 -11 24523.7 1671.89   2
  -1   0 -11 27084.4 1812.45   4
  -1   0 -12 16454.2 1454.59   2
  -1   0 -13 748.594 406.425   2
  -1   0 -14 17858.7 1700.07   2
   1  -1 -15 897.605 386.978   2
   1   1 -15 1046.15 497.520   2
   1   1 -14-231.100 532.702   2
   1  -1 -14-144.569 378.085   2
   1  -1 -13 66.2855 344.321   2
   1   1 -13 1672.13 598.437   2
   1   1 -12 6287.34 897.260   2
   1  -1 -12 6670.98 938.146   2
   1  -1 -11 48291.6 2276.49   2
   1   1 -11 45606.8 2220.98   2
   1   1 -10 19752.1 1384.06   2
   1  -1 -10 22867.3 1458.00   2
   1  -1  -9 9451.91 797.410   4
   1   1  -9 8534.27 869.055   2
   1  -1  -9 9591.65 923.293   2
   1   1  -8 106377. 2970.09   2
   1  -1  -8 111581. 2112.94   6
   1  -1  -8 109251. 2599.36   4
   1  -1  -8 109362. 2991.65   2
   1  -1  -7 101277. 2248.43   4
   1   1  -7 99577.1 2654.13   2
   1  -1  -7 99371.2 1852.96   6
   1  -1  -7 99466.8 2652.30   2
   1   1  -6 232495. 4210.87   2
   1  -1  -6 225304. 3616.61   4
   1  -1  -6 232017. 4251.84   2
   1  -1  -5 17967.4 652.170   4
   1  -1  -5 17324.5 873.029   2
  -1   1   5 16215.6 745.586   1
   1   1  -5 17326.2 873.689   2
   1   1  -4 1572.54 277.001   2
  -1   1   4 2156.63 253.971   1
   1  -1  -4 1937.24 308.194   2
   1  -1  -4 2248.60 203.398   4
   1  -1  -3 327450. 3934.10   5
   1   1  -3 328908. 4560.18   2
   1  -1  -3 335649. 4677.32   9
   1  -1  -3 327429. 4738.63   2
  -1   1   3 320832. 4562.25   1
  -1   1   2 4657.22 373.416   7
   1  -1  -2 4137.26 336.895   9
   1   1  -2 4101.39 318.040   5
   1  -1  -2 4630.14 413.479   2
   1  -1  -2 4571.26 245.530   8
   1   1  -2 4100.83 263.041   2
  -1  -1   1 30944.9 725.975   1
   1   1  -1 32379.6 819.214   5
   1  -1  -1 33956.9 954.519   9
  -1  -1   1 32084.2 640.786   9
  -1   1   1 30766.8 1086.56   7
   1   1  -1 32518.7 585.859   2
   1  -1  -1 32926.1 781.089   8
  -1  -1   1 32300.8 785.541  10
   1  -1   0 38734.8 877.030   3
  -1  -1   0 40211.8 1262.25   4
  -1   1   0 39555.0 881.281   6
   1   1   0 39723.5 871.271   5
   1  -1   0 39550.9 949.482   8
  -1   1   0 39077.4 926.302   7
  -1  -1   0 38712.0 660.832   1
  -1  -1  -1 60553.4 1002.16   2
   1  -1   1 59892.2 1321.56   8
   1  -1   1 61485.7 1270.13   3
  -1   1  -1 59159.5 1272.45   7
  -1   1  -1 62052.7 1300.95   6
  -1  -1  -1 59655.1 1477.93   4
   1  -1   2 631.977 212.391   8
   1   1   2 307.314 169.009   8
  -1  -1  -2 464.506 130.300   2
   1  -1   2 413.817 158.809   3
  -1  -1  -2 413.057 190.677   4
  -1   1  -2 392.386 181.107   6
   1   1   2 503.268 72.1969   3
  -1   1  -2 254.235 149.329   7
  -1   1  -2 280.473 150.369   2
   1   1   3 312.229 426.553   8
  -1   1  -3 561.289 192.385   2
  -1   1  -3 443.959 179.185   6
   1  -1   3 507.105 183.524   3
   1  -1   3 228.485 204.652   8
  -1  -1  -3 572.437 218.030   4
  -1  -1  -3 224.252 124.777   2
  -1   1  -4 16801.2 857.470   2
  -1  -1  -4 18572.6 887.437   4
   1  -1   4 19071.6 823.336   8
  -1   1  -4 18020.0 850.672   6
  -1  -1  -4 18587.7 820.100   2
   1   1   4 19484.4 961.361   8
  -1   1  -5 31856.9 1271.96   2
   1   1   5 31252.1 1085.50   8
  -1  -1  -5 30780.2 1220.40   4
   1  -1   5 30351.3 1104.45   8
  -1  -1  -5 31123.7 1209.69   2
  -1   1  -5 29628.0 1183.08   6
   1   1   6 2664.85 323.358   8
   1  -1   6 2816.21 377.657   8
  -1  -1  -6 3382.02 485.272   4
  -1   1  -6 2822.62 420.874   6
  -1   1  -6 2351.08 413.344   2
  -1  -1  -6 2452.34 403.116   2
  -1  -1  -7 3416.35 502.011   2
   1   1   7 4485.37 427.174   8
  -1  -1  -7 4226.04 588.692   4
  -1   1  -7 3558.09 533.221   2
  -1   1  -7 3773.79 503.462   6
   1  -1   7 3705.70 435.323   8
  -1   1  -8 12949.7 1031.38   2
  -1  -1  -8 12327.9 975.528   2
  -1   1  -8 11989.2 880.897   6
   1  -1   8 10607.5 861.679   3
  -1  -1  -8 12198.8 967.138   4
  -1   1  -8 12734.4 1049.12   4
   1  -1   9 30755.2 1567.09   3
  -1  -1  -9 30569.4 1680.94   4
  -1   1  -9 32006.1 1718.83   2
  -1  -1  -9 31786.0 1659.58   2
  -1   1  -9 31355.4 1738.75   4
  -1   1  -9 29856.4 1463.62   6
  -1  -1 -10 1533.35 436.286   2
  -1   1 -10 1847.41 440.757   6
   1  -1  10 1347.32 412.858   3
  -1  -1 -10 1581.59 480.399   4
  -1   1 -10 1469.15 443.112   2
  -1   1 -10 2276.72 575.006   4
  -1   1 -11 11951.9 1186.58   2
  -1   1 -11 10499.3 1167.13   4
  -1  -1 -11 13030.7 1204.65   2
   1  -1  11 11604.4 1083.37   3
   1  -1  12 30821.2 1844.07   3
  -1   1 -12 31165.5 2029.52   2
  -1  -1 -12 34216.1 2073.68   2
  -1   1 -12 37962.0 2297.43   4
  -1   1 -13 14348.7 1475.31   2
  -1  -1 -13 14246.7 1433.74   2
  -1  -1 -14 26063.7 1994.94   2
  -1   1 -14 29455.8 2190.97   2
  -1  -2  15 2722.90 719.774   3
   1  -2 -15 4032.43 853.083   2
   1  -2 -14 242.809 381.906   2
   1   2 -14 1628.75 647.036   2
  -1  -2  14 756.673 459.151   3
   1   2 -13 18111.9 1576.24   2
   1  -2 -13 17764.9 1524.31   2
   1  -2 -12 819.812 456.546   2
   1   2 -12 740.816 384.797   2
   1   2 -12 281.426 407.332   6
   1   2 -11 8873.03 1026.45   2
   1   2 -11 10309.0 1005.00   6
   1  -2 -11 8846.23 984.876   2
   1   2 -10 59210.1 2438.54   2
   1  -2 -10 61060.1 2442.84   2
   1  -2  -9 54586.4 2172.21   2
   1   2  -9 50474.7 2115.32   2
   1   2  -8 130280. 3348.29   2
   1  -2  -8 129957. 3344.30   2
   1   2  -7 2364.41 437.536   2
   1  -2  -7 2635.57 445.560   2
   1  -2  -7 2591.32 387.071   4
  -1   2   6 45050.0 1326.63   1
   1  -2  -6 47755.6 1666.01   2
   1  -2  -6 50165.9 1404.57   4
   1   2  -6 48134.0 1647.80   2
   1  -2  -5 232613. 3705.15   4
   1   2  -5 229567. 4008.07   2
  -1   2   5 231784. 3610.32   1
   1  -2  -5 234350. 4107.49   2
   1  -2  -4 61358.5 1705.26   2
   1  -2  -4 65300.9 1852.41   9
  -1   2   4 65974.8 1605.40   1
   1  -2  -4 64717.9 1239.51   4
   1   2  -4 63956.6 1611.05   2
  -1   2   4 63326.1 1847.82   7
   1  -2  -3 1781.49 318.709   9
  -1   2   3 1150.75 327.846   7
   1  -2  -3 1519.43 287.667   2
   1   2  -3 1694.19 240.063   2
   1  -2  -2 6205.03 526.015   9
  -1   2   2 5943.60 294.634   6
  -1  -2   2 5540.57 383.531   9
  -1  -2   2 5997.73 447.082  10
  -1   2   2 5146.17 572.675   7
   1   2  -2 5669.38 314.104   2
   1   2  -2 5610.64 291.175   7
   1   2  -1 12334.3 600.035   5
  -1  -2   1 11766.4 543.626   9
  -1   2   1 12682.7 808.392   7
  -1  -2   1 11977.5 579.822  10
  -1   2   1 12908.5 511.354   6
   1   2  -1 12649.2 450.028   7
   1  -2  -1 12448.5 718.674   9
   1  -2   0 3703.31 370.840   8
   1   2   0 4226.53 319.038   5
   1  -2   0 3956.16 528.612   9
  -1   2   0 4378.85 351.946   6
   1  -2   0 3597.92 309.168   3
  -1  -2   0 3607.23 332.522   9
  -1   2   0 3393.84 359.034   7
   1   2   0 3830.88 421.741   7
  -1  -2  -1 32109.8 645.088   2
   1  -2   1 33553.1 1116.51   8
   1   2   1 33992.6 856.638   5
  -1  -2  -1 31411.9 1056.67   9
   1  -2   1 32347.0 1016.21   3
  -1   2  -1 31571.7 1028.87   7
  -1  -2  -1 34287.3 1183.47   4
   1   2   2 335.137 100.307   5
   1  -2   2 61.5490 142.865   3
  -1  -2  -2 230.491 415.873   4
  -1  -2  -2 242.501 113.270   2
   1  -2   2 264.022 207.634   8
  -1   2  -2 460.462 210.978   7
  -1  -2  -3 109492. 3164.55   4
   1  -2   3 109482. 2398.99   8
  -1   2  -3 113102. 2394.22   7
  -1  -2  -3 110563. 2072.50   2
   1  -2   3 115190. 2436.11   3
  -1   2  -4 5447.63 493.586   2
   1  -2   4 4403.30 467.371   8
  -1  -2  -4 4684.40 416.476   2
  -1  -2  -4 5402.54 620.978   4
  -1   2  -4 5192.31 539.445   6
   1  -2   4 5294.69 508.823   3
  -1  -2  -5 5558.82 502.238   2
  -1  -2  -5 5632.99 648.053   4
   1  -2   5 5058.61 525.166   8
  -1   2  -5 6473.60 636.881   6
  -1   2  -5 6115.47 587.632   2
   1   2   5 7174.87 830.988   8
   1  -2   5 5606.81 561.606   3
  -1   2  -6 47130.6 1766.08   6
   1  -2   6 46880.3 1613.07   8
   1  -2   6 48596.5 1775.96   3
   1   2   6 51297.9 1953.81   8
  -1  -2  -6 46687.9 1636.45   2
  -1   2  -6 49539.5 1810.43   2
  -1  -2  -6 48894.7 1905.94   4
  -1  -2  -7 6727.48 657.259   2
   1  -2   7 6281.12 676.696   3
  -1   2  -7 5447.10 655.021   2
  -1  -2  -7 8593.61 831.981   4
  -1   2  -7 6970.60 707.490   6
   1   2   7 7282.91 592.893   8
   1  -2   7 4836.69 557.056   8
  -1  -2  -8 1388.67 480.718   4
   1  -2   8 515.812 285.233   3
  -1  -2  -8 524.279 243.839   2
  -1   2  -8 663.910 314.571   2
  -1   2  -8 706.483 355.056   6
   1  -2   8 519.007 276.271   8
  -1   2  -9 4572.83 661.462   6
   1  -2   9 3607.73 589.131   3
  -1  -2  -9 3669.41 761.360   4
  -1   2  -9 2546.12 552.071   2
  -1  -2  -9 3595.40 591.941   2
  -1   2 -10 12214.2 1166.32   2
  -1   2 -10 10803.3 1014.99   6
   1  -2  10 10334.5 1028.56   3
  -1  -2 -10 11389.2 1059.29   2
  -1  -2 -11 21810.8 1543.89   2
  -1   2 -11 24282.1 1556.04   6
  -1   2 -11 26587.3 1884.05   4
  -1   2 -11 22449.2 1650.48   2
   1  -2  11 21816.4 1548.95   3
  -1   2 -12 14704.6 1456.48   2
  -1  -2 -12 13108.4 1265.29   2
   1  -2  12 14289.0 1330.00   3
  -1   2 -12 13904.0 1469.55   4
  -1   2 -13 634.098 489.655   4
  -1  -2 -13 668.885 432.058   2
   1  -2  13 154.281 337.495   3
  -1   2 -13-49.3612 369.547   2
  -1  -2 -14 15561.4 1542.43   2
   1  -3 -15 1056.24 537.812   2
  -1  -3  14 479.628 484.233   3
   1   3 -14-179.888 430.595   2
   1  -3 -14-471.437 393.646   2
   1   3 -13-79.9532 326.167   2
  -1  -3  13 237.772 394.703   3
   1  -3 -13 322.264 416.651   2
   1   3 -13 361.108 492.045   6
   1   3 -12 3948.06 732.184   6
   1  -3 -12 4633.80 802.651   2
   1   3 -12 3670.63 741.814   2
   1  -3 -11 36028.8 1975.88   2
   1   3 -11 34482.2 1986.89   2
   1   3 -11 36728.5 2034.91   6
   1   3 -10 18567.6 1371.09   2
   1  -3 -10 19561.9 1378.90   2
   1   3  -9 7101.61 812.663   2
   1  -3  -9 7910.65 851.878   2
   1   3  -8 85565.5 2670.15   2
   1  -3  -8 87468.1 2690.58   2
   1   3  -7 78917.6 2386.45   2
   1  -3  -7 76811.6 2357.44   2
  -1   3   6 163553. 3897.41   7
  -1   3   6 165940. 2868.00   1
   1  -3  -6 159763. 2718.00   4
   1   3  -6 166621. 3481.78   2
   1  -3  -6 170888. 3549.33   2
   1   3  -5 11343.5 733.858   2
  -1   3   5 12014.5 655.210   1
  -1   3   5 12242.2 937.346   7
   1  -3  -5 12689.0 814.437   2
   1  -3  -5 13048.6 970.253   9
   1   3  -4 2131.79 299.636   2
  -1   3   4 2923.02 505.662   7
   1  -3  -4 2840.13 502.424   9
  -1   3   4 2762.77 405.991   1
   1  -3  -4 2616.85 393.288   2
   1   3  -3 193449. 3107.78   7
  -1   3   3 201249. 2823.37   6
  -1   3   3 194522. 4274.42   7
   1  -3  -3 194423. 3790.10   2
   1  -3  -3 206582. 4010.74   9
  -1  -3   3 201679. 3553.19  10
  -1  -3   3 193580. 3427.53   9
   1   3  -3 200466. 3210.81   2
  -1  -3   2 1381.49 301.181  10
   1  -3  -2 1342.25 355.103   9
  -1   3   2 2015.06 549.396   7
  -1   3   2 1517.29 232.721   6
  -1  -3   2 1006.81 242.306   9
   1   3  -2 1644.85 234.125   7
   1  -3  -1 17576.0 1011.44   9
  -1   3   1 20205.5 1097.67   7
  -1  -3   1 17635.0 831.791   9
  -1   3   1 17967.3 767.528   6
   1   3  -1 18156.0 719.202   7
  -1  -3   0 17711.4 620.958   3
  -1  -3   0 16761.5 849.741   9
  -1   3   0 16886.7 874.715   7
   1   3   0 16296.0 884.418   7
   1  -3   0 16845.7 998.789   9
   1  -3   0 17551.9 773.745   3
   1  -3   1 35018.0 1531.67   9
   1  -3   1 33940.6 1174.32   3
  -1   3  -1 34214.7 1215.28   7
  -1  -3  -1 36009.5 776.197   3
   1   3   1 34499.8 1456.00   7
  -1  -3  -1 32343.5 1247.36   9
  -1  -3  -1 34002.5 745.416   2
  -1  -3  -2 388.710 241.185   4
   1   3   2 215.004 211.419   7
  -1   3  -2 455.135 236.918   7
   1   3   2 304.643 138.365   5
   1  -3   2 185.583 176.621   3
  -1  -3  -2 445.807 128.871   2
   1  -3   3 188.016 190.548   3
   1   3   3 303.646 103.920   5
  -1  -3  -3 738.336 288.954   4
   1  -3   3 126.442 268.742   8
  -1   3  -3 701.711 248.498   7
  -1  -3  -3 221.756 114.691   2
   1  -3   3 548.984 202.756  10
  -1  -3  -4 14574.6 722.547   2
   1  -3   4 13097.0 886.818   8
   1  -3   4 13731.6 891.315   3
  -1  -3  -4 15516.6 1052.12   4
  -1   3  -4 14862.1 901.148   7
   1   3   4 13501.9 434.159   5
  -1  -3  -5 22841.0 1014.57   2
   1  -3   5 21356.1 1186.32   3
   1  -3   5 21365.6 1174.78   8
  -1   3  -5 21138.1 1220.68   6
  -1  -3  -5 24374.8 1599.27   4
  -1  -3  -6 2733.38 636.854   4
  -1  -3  -6 2302.61 385.442   2
   1  -3   6 1654.51 399.157   3
  -1   3  -6 1762.98 454.066   6
   1   3   6 1715.13 539.117   8
   1  -3   7 2762.53 518.837   3
  -1   3  -7 2364.60 469.436   2
  -1   3  -7 2742.22 558.558   6
  -1  -3  -7 2979.64 604.460   4
  -1  -3  -7 2116.10 406.440   2
   1  -3   8 8515.84 884.329   3
  -1   3  -8 8833.94 960.703   6
  -1  -3  -8 8197.60 785.043   2
  -1   3  -8 8347.37 888.989   2
   1  -3   9 23592.5 1549.87   3
  -1   3  -9 22885.2 1533.31   2
  -1  -3  -9 26002.6 1472.78   2
  -1   3  -9 22945.4 1537.10   6
  -1  -3 -10 1608.77 427.364   2
   1  -3  10 1261.11 475.382   3
  -1   3 -10 1271.09 509.403   6
  -1   3 -10 1061.41 417.582   2
  -1   3 -11 9184.16 1065.55   6
  -1   3 -11 9219.00 1107.13   2
  -1  -3 -11 10023.4 1061.86   2
   1  -3  11 8078.55 1021.54   3
   1  -3  12 27583.3 1937.24   3
  -1  -3 -12 30198.2 1906.17   2
  -1   3 -12 28952.6 2202.25   4
  -1   3 -12 29069.9 1916.98   6
  -1  -3 -13 9656.60 1148.81   2
   1  -3  13 10270.3 1280.63   3
  -1   3 -13 13537.5 1620.84   4
   1   4 -14 1471.49 720.920   2
   1  -4 -13 14365.7 1376.10   2
   1   4 -13 15235.0 1504.69   6
  -1  -4  13 15368.5 1533.53   3
  -1   4  13 14392.4 1595.56   7
   1   4 -13 13671.9 1461.09   2
   1   4 -12 1134.10 472.649   6
   1   4 -12 1055.05 501.539   2
   1  -4 -12 1385.61 489.257   2
  -1   4  12 346.375 496.379   7
  -1  -4  12 502.213 383.091   3
  -1   4  11 5283.65 907.594   7
  -1  -4  11 6331.87 947.585   3
   1  -4 -11 5269.26 776.141   2
   1   4 -11 4994.08 787.213   2
   1  -4 -10 42359.7 2062.30   2
   1   4 -10 41419.3 2093.24   2
  -1   4  10 42127.4 2384.58   7
   1  -4  -9 39945.9 1899.48   2
  -1   4   9 36304.4 2103.79   7
   1   4  -9 37868.3 1880.98   2
   1   4  -8 86678.1 2767.35   2
   1  -4  -8 93881.8 2823.63   2
  -1   4   8 86846.9 3197.84   7
   1   4  -7 839.972 350.366   2
  -1   4   7 1738.18 511.628   7
   1  -4  -7 1340.93 366.661   2
   1  -4  -6 32011.3 1420.40   2
  -1   4   6 30601.4 1736.12   7
   1   4  -6 34157.5 1455.93   2
   1  -4  -5 146825. 3811.26   9
   1  -4  -5 141700. 3193.04   2
  -1   4   5 145375. 3998.76   7
  -1  -4   5 140783. 3168.54   9
  -1  -4   5 150017. 3265.41  10
   1   4  -4 42827.9 1332.15   7
  -1   4   4 40643.7 2082.44   7
  -1  -4   4 45159.3 1612.84  10
   1  -4  -4 46268.8 1957.66   9
  -1  -4   4 42552.4 1545.43   9
   1  -4  -4 39108.3 1492.62   2
  -1  -4   3-35.9251 305.866  10
  -1  -4   3 163.943 236.769   9
   1  -4  -3 656.964 342.764   9
  -1   4   3 496.529 169.871   6
   1  -4  -3 474.169 303.834   2
  -1   4   3 557.709 428.961   7
   1   4  -3 524.525 197.789   7
  -1  -4   2 2970.29 378.942   3
   1  -4  -2 3884.98 616.156   9
  -1   4   2 3741.22 387.027   6
  -1   4   2 3709.54 731.629   7
  -1  -4   2 2945.79 445.754   9
   1   4  -2 2827.68 342.116   7
   1  -4  -1 9633.43 849.270   9
  -1  -4   1 9222.63 587.391   3
   1   4  -1 10162.9 629.845   7
  -1   4   1 9349.97 631.107   6
  -1   4   1 10884.8 883.415   7
  -1  -4   1 9378.14 716.924   9
   1   4   0 2267.03 355.066   7
   1  -4   0 2062.39 458.624   9
   1  -4   0 2578.69 352.240   3
  -1  -4   0 2331.52 381.085   9
  -1  -4   0 2456.65 280.097   3
  -1   4   0 2855.42 482.112   7
  -1  -4  -1 15782.5 982.086   9
  -1  -4  -1 16986.5 623.025   3
  -1  -4  -1 16315.9 555.740   2
   1  -4   1 16865.8 900.839   3
   1   4   1 16153.3 1265.70   7
   1  -4   1 16374.7 1114.83   9
  -1   4  -1 16472.9 937.978   7
   1  -4   2 386.972 411.822   9
   1   4   2 362.929 390.904   7
  -1  -4  -2 80.5750 256.910   9
  -1   4  -2-335.000 250.208   7
   1  -4   2 243.976 253.181   3
  -1  -4  -2 211.990 110.386   2
  -1   4  -3 64548.4 1994.46   7
  -1  -4  -3 65932.8 1488.13   2
   1   4   3 66341.7 2319.49   7
   1  -4   3 64912.7 2072.58   3
  -1  -4  -4 2233.17 293.220   2
   1   4   4 1624.62 433.379   7
   1  -4   4 1567.81 381.080   3
  -1  -4  -4 2463.67 415.176   4
   1  -4   4 2154.79 321.555  10
  -1   4  -4 1947.89 379.975   7
   1  -4   5 3437.05 565.836   3
  -1  -4  -5 3068.73 495.534   4
   1  -4   5 3242.85 429.466  10
  -1  -4  -5 2615.10 359.091   2
  -1   4  -5 3091.74 583.248   6
   1  -4   6 31051.2 1635.74   3
  -1   4  -6 29623.5 1640.76   6
   1  -4   6 30408.2 1250.90  10
  -1  -4  -6 29097.6 1425.55   4
  -1  -4  -6 31088.3 1284.73   2
  -1  -4  -7 3277.86 470.401   2
   1  -4   7 2836.74 563.505   3
  -1   4  -7 3941.22 668.563   6
  -1   4  -8 1015.77 510.237   6
  -1  -4  -8 578.917 254.693   2
   1  -4   8 435.405 357.531   3
  -1   4  -9 2489.00 598.562   6
   1  -4   9 2065.82 551.304   3
  -1   4 -10 7222.19 969.471   6
   1  -4  10 10149.9 1137.76   3
   1  -4  11 16286.6 1507.79   3
  -1   4 -11 15768.4 1483.80   6
   1  -4  12 10690.6 1278.31   3
  -1   4 -12 11626.2 1367.75   6
  -1   4 -13 126.602 495.529   6
   1  -4  13 556.100 391.275   3
  -1   4 -13-655.825 621.371   4
   1   5 -13 816.402 531.994   6
  -1   5  12 3533.28 925.431   7
   1   5 -12 2751.19 745.219   6
  -1  -5  12 2295.21 668.641   3
  -1  -5  11 24560.1 1867.81   3
   1   5 -11 20564.4 1751.09   6
  -1   5  11 27917.4 2156.35   7
  -1   5  10 13348.6 1442.80   7
  -1  -5  10 11202.2 1196.36   3
  -1  -5   9 3952.56 706.685  10
  -1   5   9 3556.83 774.960   7
  -1  -5   9 3623.94 699.565   3
  -1  -5   8 46055.6 2007.23  10
   1  -5  -8 52725.9 2091.92   2
  -1  -5   8 50048.3 2330.33   3
  -1   5   8 50644.6 2638.36   7
  -1   5   7 48395.0 2594.27   7
  -1  -5   7 51466.0 2228.58   3
  -1  -5   7 47314.9 1974.99  10
   1  -5  -7 50379.6 1932.46   2
  -1  -5   6 99117.1 3031.99   3
  -1  -5   6 91916.3 2696.82   9
   1  -5  -6 97508.8 2686.07   2
  -1  -5   6 91509.8 2714.55  10
  -1   5   6 103058. 3770.19   7
  -1  -5   5 6155.13 679.792   9
   1  -5  -5 6659.95 870.138   9
  -1   5   5 6372.80 1042.42   7
  -1  -5   5 5750.68 678.287   3
   1  -5  -5 6142.75 626.798   2
  -1  -5   5 4819.28 597.191  10
   1   5  -4 2679.32 384.277   7
   1  -5  -4 2584.06 435.565   2
  -1   5   4 2478.75 692.485   7
  -1  -5   4 2384.42 474.304   3
  -1  -5   4 2594.39 488.461   9
   1  -5  -4 2881.32 625.210   9
  -1   5   3 109427. 3971.15   7
  -1  -5   3 97610.6 2678.76   9
  -1  -5   3 100241. 2641.97   3
   1  -5  -3 96923.8 3115.69   9
  -1   5   3 98879.4 2199.32   6
   1  -5  -3 102022. 2817.79   2
   1   5  -3 98879.5 2343.17   7
  -1  -5   2 1425.95 402.976   9
  -1  -5   2 1006.41 280.769   3
   1   5  -2 1128.97 273.235   7
   1  -5  -2 614.695 406.151   9
  -1   5   2 335.338 440.764   7
  -1   5   2 734.423 251.217   6
   1   5  -1 8871.39 666.663   7
  -1  -5   1 8540.38 626.791   3
  -1  -5   1 7626.88 760.757   9
   1  -5  -1 7112.42 841.585   9
  -1   5   1 9635.34 732.201   6
  -1   5   1 7961.52 810.851   7
  -1   5   0 8151.77 719.147   6
  -1  -5   0 6909.85 510.686   3
  -1   5   0 6739.90 709.353   7
   1  -5   0 6074.32 588.444   3
  -1  -5   0 5937.78 684.532   9
   1  -5   0 6688.90 768.355   9
   1   5   0 7018.44 669.373   7
  -1   5  -1 16501.5 1035.25   7
   1   5   1 16541.5 1153.00   7
  -1  -5  -1 17361.8 736.801   3
   1  -5   1 17051.4 1236.08   9
  -1  -5  -1 17241.3 1140.57   9
   1  -5   1 16404.6 981.385   3
   1  -5   2-230.052 384.767   9
   1   5   2 463.673 634.222   7
   1  -5   2-45.9806 236.527   3
  -1  -5  -2 145.819 327.496   9
  -1   5  -2 454.862 286.898   7
   1  -5   3 1307.37 553.218   9
   1   5   3 279.050 531.422   7
   1  -5   3 94.8511 268.496   3
  -1   5  -3 688.763 335.827   7
  -1   5  -4 8821.98 814.325   7
  -1   5  -4 8014.91 885.027   6
   1  -5   4 8716.36 987.131   9
   1   5   4 7647.75 975.149   7
   1  -5   4 7713.79 832.215   3
   1   5   5 12826.2 1208.00   7
  -1   5  -5 12584.8 1125.16   6
  -1   5  -5 10830.3 925.542   7
   1  -5   5 12821.8 1081.43   3
  -1   5  -6 877.460 471.156   6
   1  -5   6 933.982 381.264   3
   1   5   6 1292.43 478.964   7
   1   5   7 1623.40 551.196   7
   1  -5   7 621.549 416.563   3
  -1   5  -7 1448.97 529.449   6
   1  -5   8 5255.29 804.656   3
   1   5   8 6543.49 954.997   7
  -1   5  -8 5782.94 907.085   6
   1  -5   9 14332.8 1348.46   3
  -1   5  -9 15945.4 1469.70   6
   1   5   9 13678.0 1456.27   7
   1   5  10 678.942 523.080   7
   1  -5  10 1462.82 483.480   3
  -1   5 -10 493.504 390.009   6
   1  -5  11 5190.93 926.658   3
   1   5  11 5270.35 1050.79   7
  -1   5 -11 4016.95 831.810   6
   1  -5  12 16390.0 1658.56   3
   1   5  12 18468.9 1844.29   7
  -1   5 -12 20810.7 1865.50   6
   1   6 -12 845.885 592.121   6
   1   6 -11 3502.55 802.045   6
  -1  -6  11 4008.12 877.180   3
  -1   6  11 4805.36 1030.26   7
  -1   6  10 24483.9 2205.78   7
  -1  -6  10 23627.7 1824.05   3
  -1   6   9 26434.4 2241.30   7
  -1  -6   9 26485.2 1855.09   3
  -1   6   8 45931.7 2923.58   7
  -1  -6   8 45286.7 2331.91   3
  -1  -6   7 627.789 393.896   3
  -1   6   7 1090.55 731.629   7
  -1  -6   6 17533.4 1321.68   3
  -1   6   6 18033.4 1743.88   7
  -1  -6   5 68959.7 2442.99   9
  -1  -6   5 77167.7 2686.08   3
   1  -6  -5 77719.3 3120.19   9
  -1   6   5 81811.2 3559.18   7
  -1  -6   4 23976.4 1383.03   3
   1  -6  -4 23438.5 1655.17   9
  -1  -6   4 22145.8 1333.40   9
  -1   6   4 20087.4 1819.44   7
   1  -6  -3 1059.84 502.502   9
  -1  -6   3 472.839 338.289   9
  -1  -6   3 251.186 230.434   3
  -1   6   3 451.123 730.252   7
  -1   6   2 2275.42 632.548   7
  -1  -6   2 1993.89 487.945   9
   1  -6  -2 1209.89 460.462   9
  -1  -6   2 2294.09 405.467   3
  -1   6   2 1900.48 355.323   6
   1   6  -1 4528.94 543.281   7
  -1  -6   1 5265.97 550.898   3
   1  -6  -1 4455.36 766.571   9
  -1   6   1 5506.40 624.103   6
  -1   6   1 4527.63 698.977   7
  -1  -6   1 3763.08 620.448   9
   1   6   0 1485.16 405.292   7
  -1  -6   0 830.265 367.861   9
  -1   6   0 1115.88 444.745   7
   1  -6   0 1455.49 355.293   3
   1  -6   0 2197.35 559.418   9
  -1   6   0 929.839 373.212   6
   1   6   1 6285.85 766.955   7
  -1   6  -1 6946.84 792.391   6
  -1   6  -1 7068.62 768.277   7
   1  -6   1 6790.87 695.778   3
   1  -6   1 7667.80 900.116   9
  -1  -6  -1 6142.06 779.736   9
  -1  -6  -2-446.403 382.730   9
   1  -6   2-328.202 420.752   9
  -1   6  -2-183.312 311.982   7
   1   6   2 276.397 388.748   7
   1  -6   2-184.112 305.503   3
  -1   6  -2 244.706 331.587   6
   1   6   3 29474.8 2405.45   7
   1  -6   3 31795.7 1828.80   9
  -1   6  -3 30274.9 1718.63   6
   1  -6   3 29747.9 1587.59   3
  -1   6  -3 29997.1 1547.33   7
   1  -6   4 221.509 283.312   3
   1  -6   4 683.521 491.094   9
  -1   6  -4 600.067 400.522   6
  -1   6  -4 557.622 378.244   7
   1   6   4 593.225 623.127   7
   1  -6   5 823.985 371.384   3
   1   6   5 2004.16 760.308   7
   1  -6   5 1534.89 564.027   9
  -1   6  -5 1383.49 524.618   6
  -1   6  -5 629.517 314.876   7
  -1   6  -6 16772.9 1435.25   6
   1  -6   6 15711.5 1306.17   3
   1   6   6 14845.6 1541.68   7
   1  -6   6 14961.1 1354.10   9
   1   6   7 989.395 540.860   7
  -1   6  -7 1102.15 572.513   6
   1  -6   7 796.203 390.137   3
   1   6   8 1106.79 707.719   7
   1  -6   8 359.734 377.764   3
  -1   6  -8 325.820 491.605   6
  -1   6  -9 729.899 544.033   6
   1   6   9 546.532 555.434   7
  -1   6 -10 3609.06 796.072   6
   1   6  10 4864.24 1022.34   7
   1  -6  10 4700.55 877.835   3
  -1   6 -11 11030.3 1410.05   6
   1   6  11 12359.3 1620.54   7
   1   7 -10 7274.29 1198.77   6
  -1  -7  10 6243.34 1021.24   3
  -1   7  10 8437.51 1574.01   7
  -1  -7   9 1092.87 486.237   3
  -1   7   9 2302.97 904.870   7
  -1  -7   8 22967.9 1759.19   3
  -1   7   8 25009.7 2286.26   7
  -1   7   7 28811.5 2337.79   7
  -1  -7   7 26858.8 1832.79   3
  -1  -7   6 48918.7 2353.44   3
  -1   7   6 47393.7 2939.37   7
   1  -7  -5 1658.50 668.065   9
  -1   7   5 2446.57 887.935   7
  -1  -7   5 1977.83 460.872   3
   1  -7  -4 2715.84 702.836   9
  -1   7   4 1222.48 704.755   7
  -1  -7   4 2133.30 515.330   3
  -1   7   3 45734.4 2590.36   7
   1  -7  -3 41575.1 2337.64   9
  -1  -7   3 43117.3 2055.29   9
  -1  -7   3 46615.4 1973.48   3
  -1  -7   2 1861.52 526.484   9
  -1   7   2 906.809 505.131   7
   1  -7  -2 823.334 417.014   9
  -1  -7   1 4092.48 684.227   9
  -1   7   1 3634.82 656.269   7
   1  -7  -1 2223.08 560.158   9
  -1   7   0 3447.11 627.377   7
   1  -7   0 2811.33 703.568   9
  -1   7   0 1499.44 437.993   6
  -1  -7   0 1783.40 518.327   9
  -1   7  -1 7231.51 826.366   7
   1  -7   1 7290.84 941.488   9
  -1   7  -1 6369.48 798.766   6
   1  -7   1 6393.87 751.319   3
  -1  -7  -1 6407.06 873.950   9
  -1   7  -2 297.991 380.563   6
  -1   7  -2 477.089 356.097   7
   1  -7   2 202.765 375.137   9
  -1  -7  -2-185.395 374.936   9
   1  -7   2 93.6644 241.619   3
   1  -7   3 299.139 411.887   9
  -1   7  -3-187.060 385.921   6
   1  -7   3 331.850 268.455   3
   1   7   3 320.267 491.811   7
   1  -7   4 4557.09 775.114   9
   1  -7   4 4404.28 704.122   3
  -1   7  -4 4648.91 825.292   6
   1   7   4 4029.00 1029.04   7
   1  -7   5 4455.88 799.515   9
   1   7   5 4922.18 1200.24   7
  -1   7  -5 7532.87 1006.45   6
   1  -7   5 6506.44 895.782   3
   1  -7   6 376.246 333.008   3
   1   7   6 1436.02 845.290   7
  -1   7  -6-685.905 465.800   6
   1  -7   7 192.226 334.967   3
  -1   7  -7 349.642 452.693   6
   1  -7   8 2526.02 687.876   3
   1   7   8 4048.95 1147.69   7
  -1   7  -8 2109.49 698.039   6
   1   7   9 7846.07 1414.72   7
  -1   7  -9 7960.15 1165.90   6
   1  -7   9 7775.80 1202.25   3
   1   7  10 2534.42 993.226   7
  -1   8   9 16401.9 1944.14   7
  -1  -8   9 14112.4 1500.65   3
  -1  -8   8 24566.9 1906.63   3
   1   8  -8 21784.0 1939.83   6
  -1   8   8 23057.5 2244.91   7
  -1  -8   7 275.289 406.620   3
  -1   8   7 422.974 602.660   7
  -1  -8   6 9876.86 1102.46   3
  -1   8   6 9611.70 1558.24   7
   1  -8  -5 35073.1 2420.47   9
  -1   8   5 34774.7 3130.97   7
  -1  -8   5 35830.0 2021.61   3
  -1   8   4 11189.1 1533.79   7
   1  -8  -4 11493.3 1387.61   9
   1  -8  -3-663.041 623.321   9
  -1   8   3-80.6118 442.885   7
   1  -8  -2 1760.96 549.659   9
  -1  -8   2 1912.02 581.570   9
  -1   8   2 1343.61 571.855   7
  -1  -8   1 1673.80 577.454   9
   1  -8  -1 1235.87 585.062   9
   1  -8   0 167.331 390.576   9
  -1  -8   0-152.185 419.168   9
   1  -8   1 2218.37 631.175   9
  -1  -8  -1 2901.17 726.134   9
  -1   8  -1 2977.50 599.592   6
  -1   8  -2 252.177 398.263   6
  -1  -8  -2-338.595 422.835   9
   1  -8   2 266.986 419.259   9
   1  -8   3 13043.5 1203.41   3
   1  -8   3 13991.7 1395.02   9
  -1   8  -3 12682.5 1312.58   6
   1  -8   4-295.884 406.980   3
  -1   8  -4 197.595 381.348   6
   1  -8   5 42.4342 439.235   3
  -1   8  -5 1404.33 616.193   6
   1  -8   6 5232.79 891.568   3
  -1   8  -6 5699.32 967.610   6
   1  -8   7-454.174 497.500   3
  -1   8  -7 711.105 515.803   6
   1   9  -5 949.265 504.038   6
   1   9  -4 1508.50 638.271   6
   1  -9  -4 1074.78 685.562   9
   1   9  -3 18237.6 1622.23   6
   1  -9  -3 18684.1 1795.98   9
   1  -9  -2 201.298 466.823   9
  -1  -9   1 115.212 428.725   9
   1  -9  -1 456.793 544.246   9
   1  -9   0 1205.80 613.777   9
  -1  -9   0 1235.39 559.615   9
  -1  -9  -1 2329.22 628.558   9
   1  -9   1 3208.30 804.541   9
   1  -9   2-372.939 476.068   9
  -1   9  -3 174.113 396.240   6
  -1   9  -4 909.512 558.959   6
  -1   9  -5 3083.58 869.168   6
   1  -9   5 2908.80 702.512   3
   2   0 -15 10611.5 1341.23   2
   2   0 -14 57458.3 2938.21   2
   2   0 -13 12103.6 1295.57   2
   2   0 -12 8270.71 1016.72   2
   2   0 -11 48053.9 2274.77   2
   2   0 -10 1293.14 442.379   2
   2   0  -9 42764.5 1915.51   2
   2   0  -8 17749.7 1139.06   2
   2   0  -7 24645.8 1255.88   2
  -2   0   6-66.6068 175.964   1
   2   0  -6 267.132 231.481   2
   2   0  -5 43505.1 1191.47   5
  -2   0   5 43150.6 1364.14   1
   2   0  -5 41791.8 1415.10   2
  -2   0   4 20112.6 843.789   1
   2   0  -4 20568.8 602.023   8
   2   0  -4 21808.7 920.217   2
   2   0  -4 20724.9 755.292   5
   2   0  -3 3168.96 295.909   8
   2   0  -3 2947.69 351.842   2
  -2   0   3 3072.27 273.839   7
   2   0  -3 3261.78 228.384   9
  -2   0   3 3676.18 372.803   1
   2   0  -3 3348.98 334.027   5
   2   0  -2 48403.4 1253.40   8
  -2   0   2 44459.6 1360.19   1
  -2   0   2 46147.9 1137.35   4
  -2   0   2 47688.9 1135.29   7
  -2   0   1 852.167 173.629   4
  -2   0   1 510.934 128.850   7
   2   0  -1 867.141 330.318   8
  -2   0   0 8936.59 472.690   4
   2   0   0 9084.27 631.357   8
  -2   0   0 9219.79 417.378   7
   2   0   1 17198.8 812.040   8
  -2   0  -1 16677.7 714.270   4
   2   0   2 19676.2 691.105   3
   2   0   2 21442.9 913.926   8
  -2   0  -2 20231.6 868.290   4
   2   0   3 155553. 2659.86   3
  -2   0  -3 156611. 3044.81   4
   2   0   3 157658. 2956.88   8
  -2   0  -3 149788. 2827.04   2
  -2   0  -4 10396.7 685.092   2
  -2   0  -4 11896.6 800.604   4
   2   0   4 11632.5 717.899   8
   2   0   4 11708.4 637.332   3
   2   0   5 17684.5 862.012   3
   2   0   5 19056.0 953.711   8
  -2   0  -5 17134.5 1040.59   4
  -2   0  -5 17956.8 969.780   2
  -2   0  -6 245813. 4842.05   4
   2   0   6 249690. 4366.13   8
  -2   0  -6 240449. 4634.20   2
   2   0   6 245216. 4315.16   3
   2   0   7 17503.2 987.313   8
   2   0   7 15384.8 935.126   3
  -2   0  -7 16016.4 1153.78   4
  -2   0  -7 18569.6 1172.21   2
  -2   0  -8 24634.2 1482.34   4
  -2   0  -8 24279.4 1411.35   2
   2   0   8 24925.8 1260.95   3
  -2   0  -9 71597.4 2656.88   2
  -2   0  -9 73605.6 2770.45   4
   2   0   9 68185.6 2296.22   3
  -2   0 -10 17260.3 1420.04   4
  -2   0 -10 18107.5 1393.10   2
  -2   0 -11 27940.1 1980.56   4
  -2   0 -11 30144.7 1911.30   2
  -2   0 -12 278.729 446.145   2
  -2   0 -13-218.131 367.352   2
   2   1 -15 7553.28 1136.91   2
   2  -1 -15 6171.21 1066.75   2
   2   1 -14 8417.13 1143.39   2
   2  -1 -14 7506.97 1083.42   2
   2  -1 -13 38078.5 2264.52   2
   2   1 -13 32944.9 2100.85   2
   2  -1 -12 22692.3 1636.48   2
   2   1 -12 22627.3 1658.40   2
   2  -1 -11 44104.7 2183.19   2
   2   1 -11 41086.7 2093.50   2
   2   1 -10 616.319 333.564   2
   2  -1 -10 93.4336 295.088   2
   2   1  -9 5124.62 686.112   2
   2  -1  -9 5237.19 699.250   2
   2  -1  -8 1000.52 249.072   4
   2   1  -8 1226.42 387.383   2
   2  -1  -8 1291.34 396.946   2
   2  -1  -7 1079.04 308.846   2
   2  -1  -7 1348.63 238.323   4
   2   1  -7 1672.23 369.663   2
  -2   1   7 1322.99 300.074   1
   2  -1  -6 9874.15 753.661   2
  -2   1   6 10386.6 698.359   1
   2   1  -6 10406.4 740.705   2
   2  -1  -6 11117.4 475.717   4
   2  -1  -5 35354.7 736.920   4
  -2   1   5 34409.7 1229.74   1
   2  -1  -5 34141.7 1329.90   2
   2   1  -5 36153.2 1268.20   2
   2   1  -5 34343.5 1203.71   5
   2  -1  -5 35090.0 897.483   5
   2  -1  -4 6637.18 581.976   2
   2  -1  -4 7155.70 427.458   5
  -2   1   4 6090.71 499.342   7
   2   1  -4 6673.95 492.260   5
  -2  -1   4 6548.94 502.039   1
   2  -1  -4 6591.31 290.521   8
   2   1  -4 6254.02 481.764   2
   2  -1  -4 7314.05 511.700   9
  -2   1   4 6773.35 640.385   1
  -2  -1   3 105128. 2102.91   1
   2  -1  -3 111902. 2169.94   9
   2  -1  -3 110970. 1778.66   8
   2   1  -3 103642. 2122.97   5
   2  -1  -3 108320. 2707.23   2
   2   1  -3 104585. 1971.85   2
  -2   1   3 111185. 2358.02   7
  -2   1   3 108570. 2678.16   1
  -2   1   2 60264.5 1654.23   7
  -2  -1   2 52962.4 1268.32   1
   2   1  -2 54882.1 1166.44   2
   2   1  -2 54232.9 1383.50   5
   2  -1  -2 56340.1 1241.09   8
   2  -1  -2 58386.5 1575.03   9
  -2   1   2 57943.2 955.600   4
  -2   1   1 12215.9 599.093   7
  -2  -1   1 11568.3 503.887   1
  -2  -1   1 11955.0 776.333   4
   2  -1  -1 12047.6 580.311   8
  -2   1   1 11928.0 463.936   4
  -2  -1   1 11427.0 520.228  10
  -2  -1   0 53741.1 1626.56   4
   2  -1   0 55019.0 1397.27   8
  -2  -1   0 54394.6 1395.63   1
  -2   1   0 55361.7 1316.15   7
  -2  -1  -1 109153. 2263.60   4
  -2   1  -1 103439. 2077.59   7
  -2   1  -1 104837. 2056.44   6
   2  -1   1 104238. 2175.38   8
   2  -1   1 103787. 2026.33   3
   2   1   1 106618. 2340.64   8
   2   1   2 19601.7 1264.05   8
  -2  -1  -2 16479.4 642.957   2
   2  -1   2 17716.2 845.441   8
  -2   1  -2 18885.8 838.941   7
  -2  -1  -2 17070.9 848.079   4
   2  -1   2 18493.5 778.244   3
  -2   1  -2 17745.1 800.216   6
  -2   1  -3 73.5301 178.820   6
   2   1   3 82.5705 89.9271   3
   2   1   3 100.275 444.450   8
  -2  -1  -3 75.8462 217.506   4
   2  -1   3-97.2700 223.984   8
  -2  -1  -3-17.7725 143.797   2
   2  -1   3-10.0036 148.984   3
  -2  -1  -4 208124. 3880.66   4
   2   1   4 204638. 3109.34   3
  -2  -1  -4 201410. 3546.93   2
   2  -1   4 200347. 3641.26   3
  -2   1  -4 199982. 3652.06   6
   2   1   4 203281. 3954.21   8
  -2   1  -4 197171. 3749.79   2
   2  -1   4 200094. 3709.95   8
  -2  -1  -5 56173.7 1718.29   2
  -2   1  -5 54231.0 1731.21   6
   2   1   5 53255.9 1381.75   3
   2  -1   5 54189.4 1724.18   3
   2  -1   5 53183.1 1706.78   8
   2   1   5 56085.8 1745.32   8
  -2  -1  -5 51754.7 1828.15   4
  -2   1  -5 52535.8 1794.49   2
   2   1   6 13327.6 718.806   3
  -2   1  -6 12956.0 1012.49   4
  -2   1  -6 14479.7 919.240   6
   2  -1   6 10734.3 793.732   3
  -2  -1  -6 12916.5 968.034   4
  -2   1  -6 10780.8 851.643   2
   2  -1   6 11338.7 811.381   8
  -2  -1  -6 13145.4 883.371   2
   2   1   6 13910.3 865.643   8
   2   1   7 79496.4 2179.05   8
   2  -1   7 77266.9 2248.25   8
   2  -1   7 78551.2 2393.81   3
   2   1   7 77346.1 2009.88   3
  -2   1  -7 81273.8 2392.83   6
  -2   1  -7 78481.4 2688.98   4
  -2   1  -7 85398.5 2641.16   2
  -2  -1  -7 77774.0 2425.37   2
  -2  -1  -7 80494.4 2591.33   4
  -2  -1  -8 99991.3 3163.94   4
   2  -1   8 97400.5 2862.44   3
  -2   1  -8 107270. 3296.64   4
  -2  -1  -8 104058. 3031.27   2
  -2   1  -8 97977.1 2820.20   6
  -2   1  -8 104294. 3133.01   2
  -2  -1  -9 27107.7 1573.52   2
   2  -1   9 27508.5 1518.23   3
  -2   1  -9 32621.8 1797.95   2
  -2   1  -9 29080.1 1524.75   6
  -2   1  -9 29833.1 1808.51   4
  -2  -1  -9 29122.2 1749.39   4
   2  -1  10 1940.28 486.566   3
  -2   1 -10 1568.83 511.989   4
  -2  -1 -10 2768.20 590.172   2
  -2  -1 -10 2975.56 638.058   4
  -2   1 -10 3149.30 669.530   2
  -2   1 -11 12710.3 1348.36   4
   2  -1  11 15761.2 1273.78   3
  -2   1 -11 15448.0 1415.92   2
  -2  -1 -11 15171.0 1318.13   2
  -2  -1 -12 2618.16 611.350   2
  -2   1 -12 2118.11 725.722   4
  -2   1 -12 3594.03 763.257   2
  -2   1 -13 9829.91 1259.32   2
  -2  -1 -13 7498.75 1086.03   2
   2  -2 -15 9206.76 1252.03   2
   2   2 -15 11022.8 1389.47   2
   2  -2 -14 46342.8 2650.95   2
   2   2 -14 47877.8 2713.15   2
   2  -2 -13 11992.3 1269.13   2
   2   2 -13 12116.5 1288.86   2
   2   2 -12 5533.50 852.757   2
   2  -2 -12 8308.75 1026.02   2
   2  -2 -11 47054.4 2283.90   2
   2   2 -11 40974.9 2110.33   2
   2  -2 -10 319.959 338.663   2
   2   2 -10 797.934 346.816   2
   2   2  -9 35862.4 1733.57   2
   2  -2  -9 37890.6 1822.10   2
  -2   2   8 15008.7 908.265   1
   2   2  -8 14795.7 1034.57   2
   2  -2  -8 15952.9 1118.77   2
   2   2  -7 20483.3 1115.23   2
   2  -2  -7 16328.9 621.039   4
   2  -2  -7 19875.8 1165.27   2
  -2   2   7 18662.7 958.622   1
   2  -2  -6 195.119 226.395   2
  -2   2   6 3.57196 298.034   7
  -2   2   6 346.915 226.290   1
   2   2  -6 190.757 208.046   2
   2  -2  -5 37962.1 1479.63   9
  -2   2   5 39508.9 1632.95   1
  -2   2   5 38368.6 1524.82   7
   2  -2  -5 34427.2 772.281   5
   2   2  -5 34920.7 1250.66   2
   2  -2  -5 37532.9 1505.01   2
   2  -2  -4 15161.7 901.191   9
  -2   2   4 15839.5 967.559   7
   2  -2  -4 14052.6 966.167   2
  -2   2   4 13952.5 952.452   1
  -2  -2   4 14296.0 502.138   9
   2   2  -4 16041.5 722.176   2
   2   2  -4 13658.6 804.038   5
   2   2  -3 2406.56 361.169   5
   2   2  -3 2307.55 250.343   2
   2  -2  -3 2626.09 450.206   9
   2  -2  -3 1808.62 256.663   8
  -2   2   3 3545.54 585.192   7
  -2  -2   3 2179.53 201.472   9
   2  -2  -2 34785.5 1092.44   8
   2   2  -2 33618.6 1136.95   5
   2   2  -2 34251.6 765.341   2
  -2   2   2 33292.8 1448.52   7
  -2  -2   2 35132.2 1131.32  10
   2  -2  -2 35400.1 1403.32   9
  -2  -2   2 32731.5 840.322   9
   2   2  -1 610.061 197.661   5
   2  -2  -1 880.408 463.148   9
  -2   2   1 941.603 266.302   7
   2  -2  -1 718.561 252.624   8
  -2  -2   1 252.630 226.958  10
  -2  -2   1 256.666 212.443   4
  -2   2   1 585.494 186.643   6
   2   2  -1 808.208 179.054   7
  -2   2   0 4753.11 417.762   6
   2   2   0 6421.04 452.572   5
  -2  -2   0 5530.70 688.951   4
  -2   2   0 5453.37 477.249   7
   2  -2   0 4825.46 480.513   8
   2  -2   0 5317.42 429.234   3
   2  -2   1 11059.6 715.139   8
  -2   2  -1 11702.7 682.808   7
  -2   2  -1 11107.3 658.742   6
   2   2   1 11930.7 612.001   5
   2  -2   1 11603.6 651.632   3
  -2  -2  -1 10772.9 1056.50   4
  -2  -2  -1 9907.03 281.733   1
   2  -2   2 14686.2 859.262   8
   2  -2   2 15495.3 794.487   3
  -2   2  -2 15789.3 834.470   7
   2  -2   2 15022.3 452.600  10
  -2  -2  -2 15606.5 558.462   2
  -2  -2  -2 13828.4 1082.38   4
  -2   2  -2 15991.8 848.547   6
  -2  -2  -3 125402. 3112.94   4
  -2  -2  -3 120882. 2247.60   2
   2  -2   3 123958. 2709.78   3
  -2   2  -3 120261. 2735.53   6
   2  -2   3 119782. 2739.62   8
  -2   2  -3 124578. 2751.61   7
   2   2   3 125589. 2917.35   8
  -2  -2  -4 7683.27 747.609   4
   2   2   4 6936.50 823.117   8
  -2   2  -4 7156.63 656.553   6
   2  -2   4 8053.81 670.237   3
   2  -2   4 8810.08 711.984   8
  -2  -2  -4 7999.80 548.939   2
   2  -2   5 14731.2 951.841   3
  -2  -2  -5 16408.3 1114.05   4
   2  -2   5 16217.5 979.970   8
   2   2   5 16150.8 1509.44   8
  -2  -2  -5 16399.5 870.951   2
   2   2   5 15987.1 561.120   3
  -2   2  -5 16594.1 1020.06   6
  -2  -2  -6 213209. 4103.05   2
   2  -2   6 210790. 4256.66   8
   2  -2   6 221339. 4477.17   3
  -2   2  -6 209900. 4413.80   6
   2   2   6 222392. 4558.20   8
  -2  -2  -6 210493. 4712.15   4
  -2  -2  -7 16061.4 1027.97   2
   2   2   7 15669.0 983.381   8
   2  -2   7 16554.5 1045.01   8
  -2   2  -7 16758.0 1136.90   6
  -2   2  -7 14714.8 1099.67   2
   2  -2   7 14886.6 1082.96   3
  -2  -2  -7 15973.7 1245.41   4
  -2   2  -8 23994.2 1496.32   2
   2  -2   8 19935.3 1317.00   3
   2  -2   8 22580.3 1247.32   8
  -2   2  -8 23563.4 1403.56   6
  -2  -2  -8 22008.6 1534.94   4
  -2  -2  -8 22331.6 1313.47   2
  -2   2  -9 60984.1 2728.83   4
  -2  -2  -9 64000.2 2428.91   2
   2  -2   9 60419.3 2447.55   3
  -2   2  -9 64827.8 2483.93   6
  -2  -2  -9 63092.4 2871.53   4
  -2   2  -9 62826.3 2599.89   2
   2  -2  10 15819.7 1301.23   3
  -2   2 -10 15170.2 1242.27   6
  -2   2 -10 13633.3 1271.59   2
  -2  -2 -10 15653.1 1263.67   2
  -2   2 -10 14957.1 1425.68   4
   2  -2  11 22845.5 1634.69   3
  -2  -2 -11 25984.5 1715.61   2
  -2   2 -11 28852.9 2039.17   4
   2  -2  12-145.510 338.720   3
  -2   2 -12 498.866 482.632   4
  -2  -2 -12 274.640 313.966   2
  -2   2 -13-373.145 581.703   4
  -2  -2 -13 208.240 296.643   2
  -2  -3  15 6763.62 1099.05   3
   2  -3 -15 8281.82 1213.31   2
   2   3 -14 5046.91 957.689   2
  -2   3  14 4496.49 912.941   7
   2  -3 -14 6875.61 1022.81   2
   2   3 -13 26412.1 1913.05   2
  -2   3  13 26657.8 2022.43   7
   2   3 -13 27163.1 1850.79   6
   2  -3 -13 27194.2 1924.04   2
   2   3 -12 17561.3 1487.72   2
   2  -3 -12 18314.5 1526.13   2
  -2   3  12 16899.2 1529.76   7
   2  -3 -11 34823.6 1977.42   2
   2   3 -11 31616.4 1864.54   2
  -2   3  11 33913.1 2082.63   7
  -2   3  10 70.4569 406.580   7
   2  -3 -10 307.763 292.839   2
   2   3 -10 106.391 263.403   2
   2  -3  -9 4177.83 636.796   2
   2   3  -9 3705.28 613.221   2
  -2   3   9 4464.09 706.139   7
   2   3  -8 799.250 305.333   2
  -2   3   8 845.968 266.879   1
   2  -3  -8 743.075 344.253   2
  -2   3   8 1239.46 447.603   7
  -2   3   7 1178.10 484.379   7
  -2   3   7 651.430 260.152   1
   2   3  -7 647.646 264.302   2
   2  -3  -7 888.385 347.390   2
   2   3  -6 6352.96 580.142   2
   2  -3  -6 6937.76 712.491   2
  -2   3   6 6701.38 664.106   1
  -2   3   6 5086.54 697.827   7
   2  -3  -6 5478.49 691.621   9
   2  -3  -5 27600.3 1443.70   9
  -2   3   5 26539.5 1212.51   1
   2  -3  -5 24413.2 1312.80   2
  -2   3   5 27812.3 1513.49   7
   2   3  -5 26247.0 1059.94   2
  -2  -3   5 24608.7 904.125   9
  -2  -3   4 4510.54 378.833   9
   2   3  -4 4697.19 397.987   2
   2  -3  -4 4831.48 657.931   9
   2  -3  -4 4797.01 660.304   2
  -2   3   4 4533.35 713.290   7
   2   3  -3 62887.9 1206.01   7
  -2   3   3 63050.5 2300.32   7
  -2  -3   3 65531.2 1849.03  10
   2   3  -3 63366.8 1365.05   2
  -2  -3   3 60961.0 1466.00   9
   2  -3  -3 65377.6 2161.18   9
  -2   3   2 36366.5 1803.75   7
  -2  -3   2 33229.0 1242.48  10
   2   3  -2 33575.8 799.207   7
   2   3  -2 32736.1 1261.95   5
  -2  -3   2 30914.5 1043.37   9
   2  -3  -2 36079.2 1600.29   9
  -2   3   2 33175.1 1062.75   6
   2  -3  -1 7056.62 817.339   9
  -2  -3   1 5270.24 449.159   9
  -2   3   1 5747.48 467.331   6
   2  -3  -1 6858.01 601.556   8
   2   3  -1 5769.52 506.650   5
  -2   3   1 7299.35 668.136   7
   2   3  -1 6005.22 408.753   7
  -2   3   0 27111.1 1185.32   7
  -2   3   0 27899.8 1108.21   6
   2  -3   0 29304.1 1130.94   3
   2  -3   0 30569.8 1273.35   8
   2   3   0 27922.9 1044.38   5
   2   3   0 28225.2 1333.86   7
  -2  -3  -1 63119.3 1024.38   3
  -2  -3  -1 67402.6 2160.56   4
   2  -3   1 63478.6 1803.94   3
  -2   3  -1 64599.0 1841.21   6
   2  -3   1 63971.5 1965.55   8
   2   3   1 65279.2 1601.09   5
  -2   3  -1 63258.9 1870.04   7
   2   3   2 9860.45 551.027   5
   2  -3   2 10010.1 781.344   8
  -2  -3  -2 10131.2 974.129   4
   2  -3   2 11153.6 754.786   3
  -2   3  -2 9530.61 713.420   7
  -2  -3  -2 9315.98 389.921   2
  -2   3  -2 9574.04 724.929   6
  -2  -3  -3 141.098 115.399   2
   2  -3   3 4.21871 232.182   3
   2  -3   3 233.237 300.125   8
   2   3   3 388.612 150.432   5
   2  -3   3 70.4597 138.707  10
  -2   3  -3 455.640 275.727   7
  -2  -3  -3 748.642 517.338   4
  -2   3  -3 129.971 250.118   6
  -2   3  -4 147394. 3385.84   7
   2  -3   4 151370. 3459.61   3
   2   3   4 154493. 2536.61   5
  -2  -3  -4 147813. 2748.51   2
   2  -3   4 150433. 2563.13  10
  -2   3  -4 146826. 3481.89   6
  -2  -3  -4 161133. 5842.19   4
   2  -3   4 149677. 3488.76   8
  -2  -3  -5 42881.6 1416.76   2
  -2  -3  -5 43520.5 2941.95   4
  -2   3  -5 42362.4 1799.97   6
   2  -3   5 39766.1 1722.68   3
   2   3   5 44295.3 2043.03   8
   2  -3   5 39802.7 1718.29   8
  -2   3  -6 9133.14 892.165   6
  -2  -3  -6 10811.2 1541.95   4
  -2  -3  -6 9687.85 732.663   2
   2  -3   6 9474.02 883.958   3
   2  -3   6 7781.35 787.718   8
   2   3   6 9736.93 1309.44   8
   2  -3   7 66320.7 2458.51   3
  -2  -3  -7 61121.0 3299.57   4
  -2  -3  -7 58852.4 2017.19   2
   2  -3   7 61639.5 2265.86   8
  -2   3  -7 65770.4 2466.17   6
  -2  -3  -8 81866.5 2559.26   2
   2  -3   8 78726.2 2855.23   3
  -2   3  -8 80350.8 2873.22   6
  -2  -3  -8 82692.3 3678.83   4
   2  -3   8 80277.3 2659.77   8
  -2   3  -9 22639.9 1553.93   6
   2  -3   9 22076.2 1542.83   3
  -2  -3  -9 24824.7 1457.68   2
  -2  -3 -10 2402.35 500.015   2
  -2   3 -10 1396.49 528.398   6
   2  -3  10 1836.07 530.738   3
  -2   3 -11 15279.1 1380.75   6
  -2  -3 -11 11761.6 1145.56   2
  -2   3 -11 14743.4 1551.46   4
   2  -3  11 10252.2 1192.56   3
   2  -3  12 3153.77 716.839   3
  -2   3 -12 1536.34 669.431   4
  -2   3 -13 5683.17 1101.11   4
   2  -3  13 5355.07 953.373   3
   2   4 -14 35335.8 2363.81   2
   2  -4 -14 37750.8 2391.66   2
  -2  -4  14 34747.4 2377.06   3
   2   4 -14 36971.4 2431.61   6
  -2   4  14 36805.5 2637.37   7
   2  -4 -13 7550.95 1038.03   2
  -2   4  13 8185.45 1196.88   7
   2   4 -13 9978.01 1233.49   6
   2   4 -13 10130.8 1206.66   2
   2   4 -12 2987.66 675.408   2
  -2   4  12 3245.02 830.475   7
   2  -4 -12 4907.16 779.388   2
   2  -4 -11 30076.3 1862.42   2
  -2   4  11 29896.4 2081.67   7
   2   4 -11 27862.7 1776.52   2
   2  -4 -10 511.490 348.224   2
  -2   4  10 252.529 398.046   7
   2   4  -9 25018.5 1478.19   2
  -2   4   9 23656.7 1720.65   7
   2  -4  -9 24317.0 1517.71   2
   2  -4  -8 11249.4 995.119   2
  -2   4   8 8795.91 1039.90   7
   2   4  -8 8141.26 801.605   2
   2  -4  -7 10507.5 928.009   2
   2   4  -7 12498.2 902.698   2
  -2   4   7 13170.1 1242.69   7
  -2   4   6 82.0411 211.160   1
   2  -4  -6-207.482 456.858   9
  -2  -4   6-130.610 223.319   9
  -2   4   6 260.407 469.177   7
   2  -4  -6 177.971 242.179   2
   2   4  -6-120.764 235.373   2
   2  -4  -5 22490.0 1446.29   9
   2  -4  -5 23268.8 1361.30   2
  -2   4   5 22554.6 1647.57   7
  -2   4   5 21906.6 1260.07   1
   2   4  -5 21927.2 992.803   2
  -2  -4   5 22758.1 1219.19  10
  -2  -4   5 21715.6 968.814   9
   2  -4  -4 7892.56 868.316   9
   2  -4  -4 7421.62 824.861   2
  -2  -4   4 8435.33 607.443   9
  -2   4   4 7729.97 953.090   7
   2   4  -4 7519.53 466.095   7
  -2  -4   4 6237.03 665.063  10
  -2  -4   3 1274.06 386.476  10
  -2  -4   3 1711.65 318.018   9
  -2   4   3 973.993 495.272   7
   2  -4  -3 1450.69 527.763   9
   2   4  -3 1180.04 204.775   7
  -2   4   3 869.975 224.040   6
   2   4  -2 19725.7 753.271   7
   2  -4  -2 18315.4 1242.12   9
  -2  -4   2 19412.2 955.589   9
  -2   4   2 19338.4 1371.65   7
  -2   4   2 19517.6 899.982   6
   2   4  -1 575.761 191.444   7
  -2  -4   1 507.559 241.720   9
   2  -4  -1 24.2433 401.166   9
  -2   4   1 490.996 365.308   7
  -2   4   1 212.078 207.442   6
   2   4   0 2461.45 380.317   5
  -2  -4   0 2474.79 418.720   9
  -2   4   0 2178.73 357.625   6
  -2   4   0 2163.83 431.030   7
   2  -4   0 2167.60 616.913   9
   2   4   0 2840.50 453.623   7
   2  -4   0 2765.77 403.216   3
  -2  -4   0 2281.20 248.272   3
   2  -4   1 6246.46 923.136   9
  -2   4  -1 5269.68 581.091   7
   2  -4   1 5120.11 558.767   3
  -2   4  -1 4881.29 582.610   6
  -2  -4  -1 4931.45 276.949   3
   2   4   1 4709.01 463.891   5
   2  -4   2 7990.29 792.656   8
  -2   4  -2 9655.00 805.726   7
  -2  -4  -2 9477.87 820.732   4
   2   4   2 8574.60 790.256   7
   2   4   2 10402.4 634.506   5
   2  -4   2 9208.49 774.558   3
  -2   4  -2 10507.5 846.285   6
   2  -4   3 74520.0 2486.97   8
   2  -4   3 71106.9 2276.62   3
  -2  -4  -3 75503.7 2438.44   4
   2   4   3 74583.0 1715.10   5
   2   4   3 73754.0 2408.35   7
  -2   4  -3 71188.1 2273.10   7
  -2   4  -3 74351.3 2416.26   6
  -2  -4  -3 74939.4 1493.57   2
   2  -4   4 3560.22 591.899   8
   2  -4   4 4320.21 611.998   3
  -2   4  -4 4668.12 642.510   7
  -2  -4  -4 3780.86 590.412   4
  -2   4  -4 4683.96 677.252   6
  -2  -4  -5 12608.1 1096.92   4
   2  -4   5 11914.8 1035.76   8
  -2   4  -5 11849.1 1070.93   6
   2  -4   5 13817.5 1079.31   3
  -2  -4  -6 151110. 4251.32   4
   2  -4   6 139778. 3855.44   3
  -2   4  -6 151787. 4043.84   6
  -2   4  -7 10914.9 1077.41   6
  -2  -4  -7 11798.6 1209.30   4
   2  -4   7 11731.8 1104.80   3
   2  -4   8 14628.2 1282.31   3
  -2   4  -8 16164.8 1366.46   6
   2  -4   9 40186.5 2224.86   3
  -2   4  -9 46578.8 2399.00   6
  -2   4 -10 12396.7 1296.89   6
   2  -4  10 11899.3 1263.15   3
   2  -4  11 19228.1 1660.49   3
  -2   4 -11 19758.6 1659.02   6
  -2   4 -12-56.5460 504.015   4
   2  -4  12 113.241 377.138   3
  -2   4 -12-386.461 485.110   6
  -2  -5  13 16500.9 1645.72   3
  -2   5  13 15345.0 1790.72   7
   2   5 -13 18009.9 1756.61   6
   2   5 -12 12013.5 1271.86   2
  -2   5  12 15218.6 1737.53   7
  -2  -5  12 10998.2 1295.67   3
   2   5 -11 21071.5 1587.77   2
  -2   5  11 23514.8 2024.97   7
   2   5 -10 742.986 404.476   2
  -2   5  10-73.0595 514.680   7
   2  -5 -10-339.475 281.389   2
  -2  -5   9 2280.90 653.322  10
   2  -5  -9 3255.79 609.723   2
   2   5  -9 3272.82 587.955   2
  -2   5   9 2885.40 763.509   7
  -2  -5   8 1052.03 495.191  10
   2  -5  -8 99.2619 291.910   2
   2  -5  -7 392.457 443.044   9
  -2  -5   7 314.045 379.782  10
  -2   5   7-130.111 563.265   7
   2  -5  -7 591.469 305.055   2
   2  -5  -6 3073.39 683.767   9
   2  -5  -6 3624.87 584.766   2
  -2   5   6 4445.11 925.252   7
  -2  -5   6 2204.79 534.609  10
  -2  -5   5 12882.0 855.075   9
   2  -5  -5 13611.5 1094.81   2
  -2   5   5 13691.3 1326.45   7
   2  -5  -5 12716.9 1213.64   9
  -2  -5   5 12973.4 983.885  10
   2  -5  -4 3010.35 631.022   2
  -2   5   4 3028.70 711.725   7
   2  -5  -4 1754.62 566.794   9
  -2  -5   4 2907.64 457.011   9
   2  -5  -3 30369.1 1804.18   9
  -2  -5   3 30051.4 1340.59   9
  -2   5   3 30875.8 2112.08   7
  -2   5   3 31948.2 1199.03   6
  -2   5   2 16991.5 1345.41   7
   2  -5  -2 15573.8 1275.71   9
   2   5  -2 16474.4 796.938   7
  -2  -5   2 14485.9 849.004   3
  -2   5   2 16010.6 905.563   6
  -2  -5   2 15024.7 986.848   9
  -2   5   1 2343.36 432.602   6
  -2  -5   1 2267.01 328.039   3
   2  -5  -1 3453.45 698.568   9
   2   5  -1 1812.10 305.176   7
  -2   5   1 3211.43 583.777   7
  -2  -5   1 2354.91 437.370   9
  -2  -5   0 12229.8 935.066   9
   2  -5   0 11414.9 1095.79   9
   2   5   0 10805.9 799.871   7
  -2   5   0 12856.1 986.474   7
  -2  -5   0 12951.5 649.820   3
  -2   5   0 12306.7 924.395   6
   2  -5   1 30066.4 1806.52   9
   2  -5   1 33638.9 1510.72   3
   2   5   1 31406.2 1700.18   7
  -2   5  -1 29919.1 1502.76   7
  -2   5  -1 32806.5 1550.47   6
   2   5   2 4734.92 1065.11   7
  -2   5  -2 3685.92 616.004   6
   2  -5   2 5085.41 649.796   3
  -2   5  -2 4389.98 643.928   7
   2  -5   2 4151.89 831.567   9
   2  -5   3 241.098 293.028   3
   2   5   3 224.954 513.778   7
  -2   5  -3-175.271 273.737   7
  -2   5  -3 343.591 371.276   6
  -2   5  -4 85087.0 2724.92   7
   2   5   4 86140.8 3119.95   7
   2  -5   4 86673.3 2823.96   3
  -2   5  -4 85228.2 2911.18   6
  -2   5  -5 24358.9 1466.51   7
  -2  -5  -5 24504.6 1406.40   4
   2  -5   5 26635.2 1595.56   3
  -2   5  -5 25477.9 1638.44   6
   2   5   5 25224.6 1646.73   7
   2  -5   6 4047.71 704.726   3
   2   5   6 6835.34 902.631   7
  -2   5  -6 6379.41 893.449   6
  -2   5  -7 40472.7 2213.57   6
   2   5   7 37731.2 2193.43   7
   2  -5   7 43884.9 2225.90   3
   2  -5   8 52330.6 2561.27   3
   2   5   8 49958.3 2618.58   7
  -2   5  -8 54571.3 2648.79   6
   2  -5   9 14508.4 1400.23   3
  -2   5  -9 17339.4 1561.94   6
   2  -5  10 734.263 471.396   3
  -2   5 -10 1386.47 690.406   6
   2  -5  11 7546.86 1137.03   3
   2   5  11 7865.22 1255.64   7
  -2   5 -11 6736.79 1154.37   6
  -2   6  12 1487.62 919.217   7
  -2  -6  12 2128.19 663.142   3
  -2   6  11 19779.9 2111.76   7
  -2  -6  11 17124.5 1606.68   3
  -2   6  10 1217.70 760.820   7
  -2  -6  10 1101.61 422.354   3
  -2  -6   9 12471.3 1163.23  10
  -2  -6   9 12839.3 1300.06   3
  -2   6   9 13109.4 1646.42   7
  -2  -6   8 3944.35 673.907  10
  -2   6   8 3273.54 926.111   7
  -2  -6   8 4747.52 762.503   3
  -2  -6   7 5328.11 738.488  10
   2  -6  -7 5677.98 975.390   9
  -2   6   7 7057.02 1142.53   7
  -2  -6   7 5867.63 805.970   3
   2  -6  -6 248.143 477.255   9
  -2   6   6 683.789 533.684   7
  -2  -6   6 10.6683 261.407   3
   2  -6  -5 10504.8 1210.92   9
  -2  -6   5 11481.6 992.203   3
  -2   6   5 9221.31 1193.62   7
  -2  -6   4 3276.06 519.514   9
  -2   6   4 3752.01 909.364   7
  -2  -6   4 2110.29 429.917   3
   2  -6  -4 3566.33 745.306   9
   2  -6  -3 240.551 416.497   9
  -2  -6   3 1077.95 323.244   3
  -2   6   3 1398.24 636.935   7
  -2  -6   3 1304.45 369.403   9
  -2   6   2 9670.81 794.526   6
  -2   6   2 11446.3 1137.60   7
  -2  -6   2 11169.4 806.794   3
   2  -6  -2 8947.41 1074.20   9
  -2  -6   2 8328.79 802.442   9
  -2   6   1 401.948 391.718   7
  -2  -6   1 341.539 343.465   9
  -2   6   1 64.5102 265.086   6
  -2   6   0 534.808 354.079   7
   2  -6   0 1381.23 579.666   9
  -2   6   0 1157.59 388.637   6
  -2  -6   0 957.664 382.712   9
  -2   6  -1 2128.48 487.408   7
   2  -6   1 2243.64 618.097   9
   2   6   1 2893.28 525.779   7
  -2   6  -1 2865.61 519.274   6
   2  -6   1 1873.50 422.640   3
  -2   6  -2 5846.74 773.434   7
   2  -6   2 4983.23 857.512   9
   2   6   2 5817.22 890.520   7
   2  -6   2 5919.68 738.850   3
  -2   6  -2 6417.39 788.200   6
  -2   6  -3 35693.3 1800.38   7
  -2   6  -3 33114.4 1835.13   6
   2  -6   3 35517.0 1817.83   3
   2  -6   3 35586.4 2139.15   9
   2  -6   4 2429.86 755.662   9
  -2   6  -4 758.825 323.407   7
   2   6   4 1681.71 781.334   7
  -2   6  -4 2141.11 610.995   6
   2  -6   4 1413.36 444.017   3
  -2   6  -5 8006.10 921.323   7
   2   6   5 7885.26 1145.24   7
   2  -6   5 7085.38 886.975   3
  -2   6  -5 6882.72 946.624   6
   2  -6   5 8926.97 1172.37   9
   2   6   6 81807.1 3598.65   7
  -2   6  -6 78835.1 3221.97   6
   2  -6   6 77963.3 3378.97   9
   2  -6   6 85492.4 3216.49   3
   2   6   7 6659.67 1071.17   7
   2  -6   7 8987.06 1077.18   3
  -2   6  -7 8776.83 1123.85   6
   2  -6   8 6953.84 1033.27   3
   2   6   8 7983.09 1250.63   7
  -2   6  -8 8038.60 1144.27   6
   2   6   9 25921.6 2116.45   7
   2  -6   9 28097.5 2042.46   3
  -2   6  -9 26250.7 2028.27   6
   2  -6  10 7034.47 1120.13   3
   2   6  10 8771.75 1366.16   7
  -2   6 -10 6486.10 1136.71   6
  -2  -7  10-302.097 432.845   3
  -2   7  10-742.316 781.083   7
  -2  -7   9 1341.88 537.857   3
  -2   7   9 1429.27 809.790   7
  -2  -7   8 526.287 438.062   3
  -2   7   8 536.785 654.017   7
  -2   7   7 672.210 663.516   7
  -2  -7   7 720.065 431.835   3
   2  -7  -6 1798.35 702.485   9
  -2  -7   6 501.337 323.554   3
  -2   7   6 499.092 561.261   7
  -2   7   5 5865.80 1144.86   7
  -2  -7   5 7382.72 871.455   3
   2  -7  -5 6796.05 1090.74   9
  -2   7   4 1844.57 871.335   7
  -2  -7   4 2107.65 463.821   3
   2  -7  -4 2475.23 709.903   9
  -2  -7   3 14332.6 1140.98   9
  -2   7   3 12045.8 1377.86   7
   2  -7  -3 12031.5 1335.74   9
   2  -7  -2 4909.64 861.325   9
  -2   7   2 4644.34 792.807   7
  -2  -7   2 6954.15 810.867   9
  -2  -7   1 1163.68 466.392   9
   2  -7  -1 751.516 536.030   9
  -2   7   1 120.699 336.353   7
  -2   7   1 1166.59 424.493   6
  -2  -7   0 5282.53 778.175   9
   2  -7   0 4450.78 862.347   9
  -2   7   0 4860.47 720.845   6
  -2   7   0 5108.27 757.794   7
   2  -7   1 14436.9 1394.74   9
  -2   7  -1 12600.1 1149.24   7
  -2   7  -1 10898.6 1063.64   6
   2  -7   2 961.930 496.368   9
  -2   7  -2 1398.44 480.638   7
  -2   7  -2 1856.19 531.143   6
   2  -7   2 1316.70 447.120   3
   2  -7   3 650.960 400.061   3
   2  -7   3-744.225 569.536   9
  -2   7  -3 288.588 341.713   7
  -2   7  -3-173.994 406.935   6
   2  -7   4 39644.9 2355.90   9
  -2   7  -4 43585.2 2152.53   7
  -2   7  -4 38558.1 2214.98   6
   2  -7   4 39970.3 2156.94   3
   2   7   5 17152.8 2314.63   7
   2  -7   5 14743.2 1360.55   3
  -2   7  -5 13596.6 1369.08   6
   2  -7   5 14896.3 1491.06   9
   2  -7   6 4459.10 901.538   9
   2   7   6 5228.75 1177.69   7
  -2   7  -6 3044.39 768.199   6
   2  -7   6 3423.31 699.565   3
   2   7   7 20667.4 2124.06   7
   2  -7   7 23093.7 1811.44   3
  -2   7  -7 25766.6 1995.05   6
   2   7   8 31861.1 2608.37   7
   2  -7   8 27490.8 2058.93   3
  -2   7  -8 28578.5 2172.46   6
   2   7   9 8470.09 1391.09   7
  -2   8   9 5078.10 1115.29   7
  -2  -8   9 5116.90 950.738   3
  -2   8   8 110.584 612.631   7
  -2  -8   8 1561.46 576.119   3
  -2  -8   7 2007.43 555.140   3
  -2   8   7 2821.59 866.206   7
  -2   8   6-1074.70 714.892   7
   2  -8  -6-622.520 640.220   9
  -2  -8   6 559.604 415.782   3
  -2   8   5 4461.91 1205.37   7
   2  -8  -5 3293.41 797.016   9
  -2   8   4 1286.29 709.076   7
   2  -8  -4-106.898 533.427   9
   2  -8  -3 660.753 547.385   9
  -2   8   3 1085.22 575.461   7
  -2   8   2 3850.54 769.896   7
   2  -8  -2 4108.40 863.722   9
  -2   8   1 372.496 356.720   7
   2  -8  -1 501.608 550.877   9
  -2  -8   1 850.083 433.762   9
   2  -8   0 887.206 487.923   9
  -2   8   0-276.848 402.448   7
   2  -8   1 1299.23 597.775   9
  -2   8  -1 1782.74 521.988   6
   2  -8   2 3438.06 808.755   9
  -2   8  -2 3235.87 749.949   6
   2  -8   3 16467.7 1585.61   9
  -2   8  -3 17326.1 1545.55   6
   2  -8   3 17737.3 1478.25   3
   2  -8   4 748.024 519.884   9
  -2   8  -4 750.444 506.790   6
   2  -8   4 554.922 379.672   3
   2  -8   5 5252.84 936.744   3
  -2   8  -5 4926.83 884.981   6
   2  -8   6 40192.6 2471.76   3
  -2   8  -6 36592.1 2445.37   6
   2  -8   7 3186.99 777.723   3
  -2   9   7-1382.14 909.294   7
  -2   9   6-1275.09 1078.20   7
   2  -9  -5 923.685 627.440   9
  -2   9   5 3414.99 1128.21   7
   2  -9  -4 1158.36 680.830   9
   2  -9  -3 3567.42 865.911   9
   2  -9  -2 2311.79 740.316   9
   2  -9  -1 402.911 493.706   9
   2  -9   0 691.530 471.166   9
   2  -9   1 4974.84 978.451   9
   2  -9   2 298.235 536.945   9
  -2   9  -2 151.488 435.115   6
   2  -9   3 229.931 452.220   9
  -2   9  -3-333.206 500.455   6
  -2   9  -4 17164.4 1686.62   6
   2  -9   5 6712.97 1079.61   3
   3   0 -15 1002.56 566.875   2
   3   0 -14-75.0741 356.160   2
   3   0 -13 521.030 424.994   2
   3   0 -12 611.422 380.314   2
   3   0 -11 7792.50 949.526   2
   3   0 -10-99.8858 318.414   2
   3   0  -9 6367.68 773.854   2
   3   0  -8 15941.4 1119.24   2
  -3   0   8 18408.4 1111.39   1
   3   0  -7 37497.7 1308.15   5
  -3   0   7 38644.0 1562.82   1
   3   0  -7 37862.1 1624.09   2
   3   0  -6 2453.42 331.276   5
  -3   0   6 2933.50 437.138   1
   3   0  -6 3976.03 532.908   2
   3   0  -6 2827.13 230.591   8
   3   0  -5 57990.9 1857.78   2
  -3   0   5 59593.7 1873.39   1
   3   0  -5 59721.1 1306.29   8
   3   0  -5 58769.2 1635.19   5
  -3   0   5 59560.6 1567.49   7
   3   0  -4 171474. 3658.36   2
   3   0  -4 167744. 3534.41   5
   3   0  -4 175665. 2662.97   9
   3   0  -4 167023. 2864.34   8
  -3   0   4 168202. 3020.34   7
  -3   0   4 171814. 3837.54   1
  -3   0   3 87410.2 1816.66   7
   3   0  -3 81874.7 2133.11   2
  -3   0   3 82777.3 2132.76   1
  -3   0   3 82795.7 1774.79   4
   3   0  -3 81639.7 1905.46   8
   3   0  -2 360201. 5585.24   8
  -3   0   2 363371. 4908.57   7
  -3   0   2 358032. 5211.21   4
  -3   0   1 1720.76 282.308   4
  -3   0   1 2200.66 255.325   7
   3   0  -1 2107.53 475.341   8
  -3   0   0 53673.3 1473.58   4
   3   0   0 54388.5 1993.56   8
  -3   0   0 56394.4 1353.86   7
  -3   0  -1 371887. 5618.60   4
   3   0   1 369491. 6037.96   8
   3   0   2 91782.1 2403.45   8
  -3   0  -2 94967.4 2317.78   4
  -3   0  -3 19028.1 1029.78   4
   3   0   3 19619.7 1051.07   8
   3   0   3 18754.5 831.640   3
  -3   0  -4 14280.6 954.947   4
   3   0   4 13160.9 896.587   8
   3   0   4 13408.0 746.113   3
  -3   0  -5 39925.6 1718.76   4
   3   0   5 41619.1 1613.00   8
  -3   0  -5 39240.6 1563.74   2
   3   0   5 38907.4 1387.52   3
   3   0   6 2523.05 463.947   8
  -3   0  -6 2171.37 496.036   4
  -3   0  -6 2641.32 454.661   2
   3   0   6 2916.82 427.055   3
  -3   0  -7 11500.7 1055.45   4
   3   0   7 13000.4 887.651   3
  -3   0  -7 12995.5 1031.96   2
   3   0   7 12793.2 971.582   8
   3   0   8 218.677 253.550   3
  -3   0  -8 401.853 397.909   4
  -3   0  -8 502.274 386.535   2
  -3   0  -9 21180.3 1582.12   4
  -3   0  -9 18715.5 1393.70   2
  -3   0 -10 3091.51 736.898   4
  -3   0 -10 3037.96 652.931   2
  -3   0 -11 249.840 333.902   2
  -3   0 -11 373.313 459.640   4
   3   1 -15 899.348 559.459   2
   3  -1 -15 1482.61 628.270   2
   3  -1 -14 8260.39 1153.80   2
   3   1 -14 6978.55 1046.46   2
   3  -1 -13 15114.6 1468.01   2
   3   1 -13 13454.0 1355.05   2
   3   1 -12-49.3906 318.050   2
   3  -1 -12-223.373 445.085   2
   3   1 -11 13663.7 1213.07   2
   3  -1 -11 12610.4 1197.13   2
   3  -1 -10 27328.3 1662.62   2
   3   1 -10 26429.3 1583.06   2
  -3   1   9 240.298 286.084   1
   3  -1  -9 672.023 348.763   2
   3   1  -9 1062.72 420.121   2
   3   1  -8 10566.1 872.422   2
  -3   1   8 9819.24 833.710   1
   3  -1  -8 10164.1 542.617   4
   3  -1  -8 11056.6 960.714   2
   3  -1  -7 12317.9 968.308   2
  -3   1   7 12355.2 894.969   1
   3   1  -7 11843.1 817.325   5
  -3   1   7 12501.0 868.473   7
   3  -1  -7 12716.1 645.263   5
   3   1  -7 11295.8 871.669   2
   3   1  -6 8542.59 656.400   5
   3  -1  -6 7656.55 309.101   8
  -3  -1   6 9459.07 740.152   1
  -3   1   6 8045.77 682.945   7
   3  -1  -6 9047.55 547.977   5
   3  -1  -6 8924.83 802.101   2
   3   1  -6 8555.53 697.082   2
   3  -1  -6 8756.06 680.023   9
  -3   1   6 8139.07 772.435   1
  -3  -1   5 53034.8 1682.19   1
   3  -1  -5 56012.5 1160.47   8
   3  -1  -5 57320.1 1676.08   9
   3   1  -5 52565.1 1634.34   5
   3  -1  -5 53973.0 1731.85   5
   3  -1  -5 54067.3 2073.06   2
   3   1  -5 51440.5 1611.15   2
  -3   1   5 54464.5 1730.92   7
  -3   1   5 54958.8 1934.82   1
   3   1  -4 73153.8 1844.07   2
   3  -1  -4 79756.4 2013.47   9
  -3  -1   4 74798.1 1938.38   1
   3  -1  -4 74770.1 2270.77   2
  -3   1   4 77879.7 2209.58   7
  -3  -1   4 74861.1 1431.60   7
   3  -1  -4 76325.5 1598.58   8
  -3   1   4 78271.7 2206.13   1
   3   1  -4 73992.7 1947.88   5
  -3  -1   3 38968.5 1485.75   4
  -3   1   3 40464.7 1403.09   7
   3   1  -3 40383.6 1277.88   2
   3  -1  -3 40507.6 1345.15   9
   3  -1  -3 39696.3 1178.65   8
  -3  -1   3 40214.1 870.188   7
  -3   1   3 39876.7 908.564   4
   3   1  -3 37385.5 1381.64   5
  -3  -1   3 36534.1 1269.82   1
  -3   1   2 198859. 2984.30   4
  -3   1   2 201560. 3598.37   7
  -3  -1   2 201592. 2601.83   7
   3  -1  -2 197824. 3412.42   8
  -3  -1   2 201277. 3770.55   1
   3   1  -2 197773. 3446.31   8
  -3  -1   2 195188. 3686.64   4
  -3  -1   1 238630. 4618.84   4
   3   1  -1 247034. 4191.84   8
   3  -1  -1 244114. 4055.20   8
  -3   1   1 241906. 3660.03   4
  -3  -1   1 236279. 4012.01   1
  -3  -1   1 234021. 3615.26  10
  -3   1   1 246590. 3866.47   7
  -3   1   0 382161. 5547.76   4
   3  -1   0 373544. 5805.82   8
   3   1   0 384507. 6310.73   8
  -3   1   0 393033. 5579.49   7
  -3  -1   0 385794. 5989.26   4
   3  -1   1 2727.61 417.483   8
  -3   1  -1 2804.03 401.609   4
  -3  -1  -1 2910.09 428.828   4
   3   1   1 2537.22 654.459   8
  -3   1  -1 2806.47 368.822   7
  -3   1  -2 25996.3 1158.28   4
   3  -1   2 24177.0 1157.59   8
   3  -1   2 26308.6 1052.85   3
  -3  -1  -2 25298.7 1168.01   4
   3   1   2 28454.4 1728.87   8
   3  -1   3 245586. 4586.86   8
  -3  -1  -3 258112. 4647.40   4
   3   1   3 256093. 5586.98   8
  -3   1  -3 254541. 4642.07   4
   3  -1   3 249248. 4289.57   3
  -3  -1  -4 4518.02 592.475   4
   3  -1   4 4758.15 597.929   8
  -3  -1  -4 3900.12 436.035   2
  -3   1  -4 4008.27 582.070   4
   3   1   4 4647.90 386.939   3
   3   1   4 4594.60 585.392   8
   3  -1   4 4351.03 484.708   3
   3   1   5 28103.3 1364.67   8
   3  -1   5 27817.8 1360.00   8
  -3  -1  -5 24063.1 1343.92   4
  -3  -1  -5 24777.8 1181.94   2
   3  -1   5 25309.1 1216.18   3
   3   1   5 26319.7 1005.60   3
  -3   1  -5 26479.3 1458.79   4
   3  -1   6 6982.83 747.232   8
   3   1   6 6449.03 692.936   8
   3  -1   6 5860.79 627.874   3
  -3  -1  -6 5613.36 617.600   2
  -3  -1  -6 6294.68 737.621   4
   3   1   6 7059.62 555.717   3
  -3   1  -6 7313.71 817.959   4
   3  -1   7 5834.32 694.540   8
  -3  -1  -7 5777.28 677.528   2
  -3   1  -7 5596.51 786.129   4
  -3  -1  -7 4692.98 692.016   4
   3  -1   7 5006.97 611.335   3
   3   1   7 4363.82 579.470   8
  -3   1  -8 3873.61 703.913   4
  -3  -1  -8 3864.01 716.493   4
   3  -1   8 4076.91 584.263   3
  -3  -1  -8 3465.90 571.582   2
  -3  -1  -9 300.372 345.850   4
  -3   1  -9 1153.70 485.796   4
  -3  -1  -9 640.140 365.595   2
   3  -1   9 970.361 384.208   3
  -3   1 -10 12536.6 1345.22   4
   3  -1  10 11871.5 1083.84   3
  -3  -1 -10 12133.0 1164.56   2
  -3  -1 -10 15012.3 1395.48   4
  -3  -1 -11 5389.19 826.092   2
  -3   1 -11 5606.35 935.940   4
  -3  -1 -12 502.479 435.905   2
  -3   1 -12 213.511 593.251   4
  -3   2  15-472.195 558.715   7
   3   2 -15 216.147 486.401   2
   3  -2 -14 292.485 393.741   2
  -3   2  14-326.782 409.817   7
   3   2 -14 397.347 352.354   2
  -3   2  13 332.873 394.061   7
   3  -2 -13 1045.72 479.415   2
   3   2 -13 777.930 441.583   2
   3  -2 -12 710.685 422.270   2
   3   2 -12 833.670 460.846   2
  -3   2  12 481.111 374.936   7
  -3   2  11 7819.05 978.288   7
   3   2 -11 8265.09 960.515   2
   3  -2 -11 6021.04 848.286   2
   3  -2 -10-184.302 353.003   2
  -3   2  10 420.842 333.974   7
   3   2 -10 306.796 298.697   2
   3  -2  -9 5177.28 746.796   2
  -3   2   9 5978.96 666.401   1
   3   2  -9 5031.88 692.794   2
  -3   2   9 5372.70 733.057   7
   3  -2  -8 15395.7 1169.05   2
  -3   2   8 14504.6 1019.25   1
   3   2  -8 12597.8 951.835   2
  -3   2   8 13162.3 1039.70   7
   3  -2  -7 30007.6 1587.38   2
   3  -2  -7 30717.4 871.263   5
  -3   2   7 33856.9 1632.23   1
  -3   2   7 29359.8 1501.94   7
   3   2  -7 30668.2 1374.19   2
  -3   2   6 2536.51 471.762   1
   3  -2  -6 2139.22 422.327   9
   3   2  -6 2076.56 402.910   5
   3  -2  -6 2497.63 538.541   2
  -3   2   6 1664.50 439.878   7
   3   2  -6 1609.79 314.191   2
   3  -2  -6 2247.71 302.189   5
   3   2  -5 48872.3 1690.60   5
  -3   2   5 50265.2 1979.42   7
   3   2  -5 47925.6 1479.34   2
   3  -2  -5 51177.7 1893.72   9
   3  -2  -5 47115.1 2036.97   2
   3  -2  -5 51914.9 1300.99   8
  -3   2   5 48454.8 1752.99   1
   3  -2  -4 137293. 2486.81   8
   3   2  -4 125124. 2426.27   2
   3  -2  -4 130662. 3181.00   9
  -3  -2   4 125530. 2706.66   1
  -3   2   4 131227. 3275.22   7
   3   2  -4 127491. 2873.98   5
   3  -2  -3 66636.3 1684.82   8
  -3  -2   3 62020.2 1665.52   1
   3   2  -3 64790.1 1410.67   2
  -3   2   3 65897.6 1231.81   4
  -3   2   3 67507.8 2131.56   7
   3   2  -3 65717.9 1881.63   5
   3  -2  -3 65995.2 2149.87   9
  -3  -2   2 271848. 4201.84   1
   3  -2  -2 281785. 4545.18   8
   3   2  -2 278502. 4653.37   5
  -3  -2   2 283934. 5427.96   4
   3   2  -2 284637. 3750.07   2
  -3  -2   2 271878. 4416.64  10
  -3   2   2 278770. 5084.44   7
   3  -2  -2 284651. 5105.73   9
   3  -2  -1 1358.88 344.572   8
  -3  -2   1 1023.79 199.161   1
   3   2  -1 1622.83 336.528   5
  -3  -2   1 1546.96 464.882   4
  -3   2   1 887.947 314.611   7
   3   2  -1 1008.32 188.787   2
  -3  -2   0 44500.6 1914.10   4
   3  -2   0 45522.9 1558.73   8
  -3  -2   0 43694.3 1044.72   1
  -3   2   0 42451.6 1447.55   7
  -3   2  -1 301960. 4959.33   6
  -3  -2  -1 293266. 6040.43   4
  -3   2  -1 304008. 5003.82   7
  -3  -2  -1 312172. 4277.60   1
   3  -2   1 304558. 4931.87   3
   3  -2   1 296497. 5162.67   8
   3  -2   2 79132.5 2116.60   3
  -3   2  -2 77702.4 2130.24   6
  -3   2  -2 78873.9 2179.46   7
   3   2   2 82557.3 2458.18   8
  -3  -2  -2 76647.9 2526.64   4
   3  -2   2 78192.5 2265.32   8
   3  -2   3 14608.2 984.523   8
  -3  -2  -3 14604.2 703.022   2
   3  -2   3 14399.9 895.704   3
  -3  -2  -3 14805.3 1073.85   4
  -3   2  -3 15171.1 956.521   7
  -3   2  -3 13451.0 899.623   6
   3   2   3 16999.7 1314.52   8
  -3  -2  -4 13626.0 1034.60   4
  -3  -2  -4 11574.4 708.186   2
   3   2   4 14139.8 1739.77   8
   3  -2   4 11509.0 897.860   8
   3  -2   4 11132.4 831.136   3
  -3   2  -4 12039.9 883.489   6
   3  -2   5 32871.0 1563.65   8
  -3  -2  -5 33776.5 1710.36   4
  -3  -2  -5 34836.4 1353.77   2
   3  -2   5 31827.6 1473.29   3
  -3   2  -5 33508.8 1551.93   6
  -3   2  -6 2500.57 619.495   4
  -3   2  -6 2317.66 498.478   6
   3  -2   6 2283.56 478.506   8
   3   2   6 2142.88 488.596   8
  -3  -2  -6 2914.56 572.510   4
   3  -2   6 1718.34 432.321   3
  -3  -2  -6 2141.38 407.947   2
  -3  -2  -7 11971.4 1149.66   4
   3  -2   7 11816.3 997.093   8
  -3   2  -7 10055.0 1071.54   4
  -3  -2  -7 12128.9 921.785   2
   3   2   7 11066.1 928.424   8
  -3   2  -7 10736.8 953.852   6
   3  -2   7 10807.7 955.353   3
   3  -2   8 0.51780 280.712   8
  -3   2  -8 268.512 384.783   4
  -3  -2  -8-216.894 275.302   2
  -3   2  -8-17.4435 316.578   6
   3  -2   8 522.870 318.747   3
  -3  -2  -8 833.231 483.155   4
  -3   2  -9 20445.2 1599.23   4
  -3  -2  -9 15708.0 1224.97   2
  -3   2  -9 15651.5 1276.43   6
   3  -2   9 17845.8 1349.83   3
  -3  -2  -9 18620.1 1597.54   4
  -3   2 -10 3115.68 767.950   4
  -3  -2 -10 2794.30 578.972   2
   3  -2  10 3136.63 616.157   3
  -3  -2 -11 93.8331 282.961   2
  -3   2 -11-306.535 492.081   4
   3  -2  11 406.068 455.256   3
  -3   2 -12 11528.3 1477.56   4
  -3  -2 -12 13189.9 1337.14   2
  -3   2 -13-27.2644 487.685   4
   3   3 -15 1157.79 518.412   2
  -3   3  15 1823.29 763.130   7
   3  -3 -15 885.618 540.060   2
   3  -3 -14 4886.62 948.577   2
   3   3 -14 4549.76 885.830   2
  -3   3  14 4428.11 931.015   7
  -3   3  13 11352.5 1335.94   7
   3  -3 -13 11250.0 1287.79   2
   3   3 -13 8919.25 1102.47   2
   3   3 -12-91.2925 301.530   2
  -3   3  12-362.945 426.226   7
   3  -3 -12-293.459 380.445   2
   3  -3 -11 9652.70 1073.81   2
   3   3 -11 8764.77 991.576   2
  -3   3  11 8617.31 1060.94   7
   3  -3 -10 20382.6 1485.48   2
   3   3 -10 19978.0 1383.36   2
  -3   3  10 19304.1 1508.04   7
  -3   3   9 873.226 362.410   1
   3   3  -9 603.408 352.039   2
  -3   3   9 695.495 488.293   7
   3  -3  -9 480.943 413.160   2
  -3   3   8 7760.25 797.953   1
   3   3  -8 7791.06 760.088   2
   3  -3  -8 8633.35 907.433   2
  -3   3   8 7650.04 907.574   7
   3  -3  -7 8043.80 890.730   2
   3   3  -7 7980.91 698.332   2
  -3   3   7 9204.60 960.096   7
   3  -3  -7 9585.68 1038.39   9
  -3   3   7 9160.57 851.277   1
   3   3  -6 6053.42 562.710   2
   3  -3  -6 6074.67 863.259   2
  -3   3   6 6879.03 665.016   1
  -3   3   6 6419.71 850.799   7
   3  -3  -6 6363.35 799.850   9
  -3  -3   5 36619.5 907.736   9
   3   3  -5 37696.0 1258.14   2
   3  -3  -5 37395.3 1794.48   2
  -3   3   5 41484.0 2019.79   7
   3  -3  -5 40651.7 1895.60   9
   3   3  -5 37283.1 1606.09   5
  -3  -3   4 53235.9 1808.18  10
   3   3  -4 49011.8 1788.82   5
  -3  -3   4 50260.3 1159.61   9
  -3   3   4 54954.0 2158.42   7
   3   3  -4 51261.9 1328.17   2
   3  -3  -4 54893.2 2206.59   9
   3   3  -3 21326.9 669.421   2
  -3   3   3 19141.6 1279.53   7
   3  -3  -3 20832.3 1381.17   9
  -3  -3   3 21276.7 1086.83  10
   3  -3  -3 22650.9 1064.15   8
   3   3  -3 21490.5 1118.26   5
   3   3  -2 115500. 1676.94   7
  -3   3   2 113029. 3178.26   7
   3  -3  -2 125583. 3491.28   9
  -3  -3   2 118346. 2681.05  10
   3  -3  -2 123323. 2777.74   8
   3   3  -2 120143. 2756.27   5
   3   3  -2 112942. 1614.39   2
  -3  -3   1 156616. 3869.24   4
   3   3  -1 147870. 2666.45   7
  -3   3   1 152923. 3413.30   7
   3  -3  -1 158820. 3337.68   8
   3   3  -1 151784. 3159.55   5
  -3   3   1 152441. 3042.54   6
  -3   3   0 239331. 4510.31   7
   3   3   0 246633. 4256.22   5
   3  -3   0 249137. 4603.98   8
  -3  -3   0 246871. 5720.08   4
  -3   3   0 242047. 4326.80   6
  -3   3  -1 2053.81 376.428   6
  -3   3  -1 2251.35 441.581   7
   3  -3   1 2529.59 495.826   8
   3   3   1 2355.92 368.339   5
  -3  -3  -1 3449.40 787.972   4
   3  -3   1 2031.59 371.644   3
   3  -3   2 16877.6 1008.04   3
  -3  -3  -2 17809.8 1514.96   4
  -3   3  -2 18506.5 1080.20   7
   3  -3   2 15685.5 1048.26   8
  -3   3  -2 17144.5 1040.25   6
   3   3   2 18367.7 901.585   5
  -3  -3  -3 181019. 5561.80   4
   3   3   3 182229. 4142.44   8
  -3   3  -3 179206. 3909.57   7
  -3  -3  -3 180688. 2969.65   2
   3  -3   3 177284. 3984.87   8
   3  -3   3 178615. 3858.94   3
  -3   3  -3 180457. 3926.52   6
   3   3   3 184798. 3428.02   5
  -3   3  -4 3614.34 572.001   6
   3   3   4 3940.07 624.860   8
  -3  -3  -4 3863.55 398.760   2
  -3  -3  -4 3409.37 888.057   4
   3  -3   4 4123.82 643.647   8
   3  -3   4 2750.75 466.960   3
   3  -3   5 20228.9 1284.74   8
  -3  -3  -5 18693.6 1695.20   4
   3  -3   5 19130.9 1235.52   3
  -3  -3  -5 18256.0 935.454   2
  -3   3  -5 18683.0 1251.80   6
   3   3   6 3759.23 967.188   8
  -3  -3  -6 5170.95 533.752   2
  -3  -3  -6 4646.06 911.007   4
   3  -3   6 3346.13 621.386   8
  -3   3  -6 4980.52 738.080   6
   3  -3   6 4072.85 614.953   3
   3  -3   7 2946.94 575.834   8
  -3  -3  -7 3290.19 910.233   4
  -3  -3  -7 3762.49 514.400   2
   3  -3   7 2872.75 553.821   3
  -3   3  -7 3141.53 636.464   6
  -3  -3  -8 1819.56 788.662   4
   3  -3   8 2776.71 560.686   8
   3  -3   8 2438.17 537.602   3
  -3  -3  -8 3478.26 550.878   2
  -3   3  -8 2896.24 584.874   6
  -3   3  -9 934.711 551.084   4
  -3  -3  -9 538.416 287.856   2
   3  -3   9 1368.82 517.495   3
  -3   3  -9 727.630 495.736   6
  -3   3 -10 10772.8 1317.87   4
   3  -3  10 8142.57 1045.73   3
  -3   3 -10 12872.5 1297.17   6
   3  -3  11 4670.19 811.210   3
  -3   3 -11 4635.62 979.077   4
  -3   3 -12 479.558 522.111   4
   3  -3  12-294.854 387.150   3
   3  -4 -15 72.4217 437.737   2
   3  -4 -14 467.781 548.973   2
   3   4 -14-283.820 428.326   2
  -3   4  14 88.6084 542.758   7
   3  -4 -13 1017.81 553.226   2
   3   4 -13 1138.46 482.033   2
  -3   4  13 1638.68 736.143   7
   3   4 -12 902.708 442.932   2
  -3   4  12 660.330 518.483   7
   3  -4 -12 481.792 429.576   2
   3   4 -11 4679.09 750.837   2
   3  -4 -11 5413.54 865.075   2
  -3   4  11 4568.61 897.390   7
   3  -4 -10-114.485 438.912   2
   3   4 -10-132.152 312.104   2
  -3   4  10 40.7134 498.529   7
   3   4  -9 2948.10 519.566   2
  -3   4   9 3286.86 755.129   7
   3  -4  -9 3454.80 632.126   2
   3  -4  -8 7416.15 895.075   2
  -3   4   8 8229.81 1084.74   7
   3   4  -8 8299.56 763.893   2
   3   4  -7 19111.1 1071.58   2
  -3   4   7 16560.0 1494.19   7
  -3   4   7 18607.8 1117.92   1
   3  -4  -7 16373.3 1439.71   9
   3  -4  -7 17297.2 1387.79   2
   3  -4  -6 634.464 432.309   9
   3   4  -6 799.228 248.261   2
   3  -4  -6 253.940 399.142   2
  -3   4   6 1136.54 610.252   7
  -3   4   6 688.012 301.254   1
   3   4  -5 29726.8 1092.87   2
  -3   4   5 27699.0 1716.66   7
  -3  -4   5 27192.1 972.857   9
  -3  -4   5 30766.5 1494.28  10
   3  -4  -5 29730.4 1812.33   9
   3  -4  -5 25591.6 1552.46   2
  -3  -4   4 71145.7 1753.57   9
  -3   4   4 72462.5 2735.32   7
   3   4  -4 72347.8 1603.68   2
   3  -4  -4 72419.4 2822.01   9
  -3  -4   3 43385.5 1680.36  10
   3  -4  -3 43097.2 2125.60   9
  -3   4   3 44426.8 2220.01   7
  -3  -4   3 41916.8 1343.75   9
   3   4  -3 40396.5 1696.37   5
   3   4  -2 163036. 2556.90   7
  -3   4   2 167353. 4257.29   7
  -3   4   2 165733. 3295.44   6
   3  -4  -2 168711. 4571.43   9
   3   4  -2 167818. 3631.50   5
   3  -4  -1 694.102 316.243   8
  -3   4   1 138.371 359.253   7
   3  -4  -1 724.279 581.250   9
   3   4  -1 367.510 213.558   7
  -3   4   1 227.313 232.498   6
   3   4  -1 494.038 241.344   5
   3  -4   0 28102.9 1917.88   9
  -3   4   0 28344.6 1418.19   7
   3   4   0 27178.6 1298.97   7
  -3   4   0 28221.6 1311.40   6
   3   4   0 26462.2 1217.63   5
   3  -4   0 30624.0 1514.98   8
   3   4   1 189856. 3640.84   5
   3   4   1 193149. 4345.83   7
   3  -4   1 180084. 3938.09   3
  -3  -4  -1 188182. 4548.52   4
  -3   4  -1 186881. 4000.31   6
   3  -4   1 193174. 4302.06   8
  -3   4  -1 186203. 4079.03   7
   3  -4   2 50764.1 2084.16   8
  -3  -4  -2 57494.4 2498.12   4
  -3   4  -2 51949.4 1986.88   6
   3  -4   2 50515.5 1943.58   3
   3   4   2 52532.8 1611.20   5
  -3   4  -2 52900.9 1993.44   7
   3  -4   3 7866.56 861.637   8
  -3   4  -3 7622.14 799.009   7
  -3   4  -3 6861.63 767.916   6
  -3  -4  -3 8192.98 1074.87   4
   3  -4   3 9205.20 857.225   3
   3   4   3 7589.41 573.149   5
  -3   4  -4 9640.75 917.623   7
  -3  -4  -4 8912.82 1219.43   4
   3  -4   4 8961.18 920.936   8
   3  -4   4 9590.76 923.705   3
  -3   4  -4 7821.79 850.735   6
   3  -4   5 21059.2 1434.56   8
   3   4   5 21420.7 1569.45   8
   3  -4   5 22285.7 1423.77   3
  -3   4  -5 23835.2 1519.98   6
   3  -4   6 1907.14 521.513   8
  -3   4  -6 1450.01 505.931   6
   3  -4   6 2059.47 468.767   3
  -3  -4  -6 2664.04 849.172   4
   3   4   6 1038.10 626.942   8
   3  -4   7 5380.65 801.732   8
   3  -4   7 6427.31 867.414   3
  -3   4  -7 6770.63 927.235   6
  -3  -4  -7 8271.80 1367.04   4
   3  -4   8-123.173 378.179   3
   3  -4   8 718.160 418.199   8
  -3   4  -8 685.728 484.139   6
   3  -4   9 9395.15 1101.30   3
  -3   4  -9 9798.82 1162.65   6
   3  -4  10 1193.60 479.373   3
  -3   4 -10 2147.20 668.309   4
  -3   4 -10 678.365 553.942   6
   3  -4  11 905.936 539.980   3
  -3   4 -11-223.981 490.292   4
  -3   4 -11 3.83500 440.387   6
   3   5 -14 2579.01 737.128   2
   3   5 -13 6102.73 946.953   2
  -3   5  13 6723.55 1271.86   7
   3   5 -12 42.1262 324.761   2
   3  -5 -12 188.177 390.916   2
   3   5 -11 7157.87 941.062   2
   3  -5 -11 5963.91 933.686   2
  -3   5  11 4314.74 1035.88   7
   3  -5 -10 14262.8 1280.51   2
  -3   5  10 9605.80 1377.89   7
   3   5 -10 12669.2 1114.88   2
  -3  -5  10 11110.6 1223.27  10
   3   5  -9 302.090 234.979   2
  -3   5   9 297.135 588.388   7
  -3  -5   9 601.923 575.002  10
   3  -5  -9 309.638 288.676   2
   3  -5  -8 3489.46 899.541   9
  -3   5   8 3190.08 854.204   7
   3  -5  -8 4976.41 784.957   2
  -3  -5   8 3633.12 693.606  10
  -3   5   7 4664.00 899.351   7
   3  -5  -7 4918.89 798.666   2
   3  -5  -7 5013.26 941.810   9
  -3  -5   7 4468.57 709.138  10
   3  -5  -6 3067.62 729.732   9
   3  -5  -6 3652.66 732.788   2
  -3  -5   6 3048.42 591.094  10
  -3   5   6 3616.61 816.073   7
   3  -5  -5 23699.7 1553.43   2
  -3   5   5 21716.9 1639.46   7
  -3  -5   5 22373.4 1357.03  10
   3  -5  -5 21485.9 1690.33   9
  -3   5   4 30907.0 1977.13   7
   3  -5  -4 25808.2 1830.70   9
  -3  -5   4 28880.7 1219.55   9
  -3   5   3 10663.6 1328.91   7
   3  -5  -3 9923.10 1189.66   9
  -3  -5   3 10542.0 769.575   9
  -3   5   2 63492.6 1993.43   6
  -3   5   2 63190.2 2643.15   7
   3  -5  -2 62709.1 2822.08   9
  -3  -5   2 61438.6 1986.83   9
  -3  -5   1 88920.9 2019.90   3
  -3   5   1 87846.0 2908.11   7
  -3   5   1 84892.0 2486.74   6
   3  -5  -1 84828.5 3359.31   9
  -3   5   0 124969. 3464.87   7
   3   5   0 130627. 3150.13   7
   3  -5   0 129534. 4335.62   9
  -3   5   0 126692. 3253.33   6
   3   5   1 1038.00 316.500   5
   3  -5   1 1596.27 833.287   9
  -3   5  -1 823.095 395.266   7
   3   5   1 76.1121 368.197   7
  -3   5  -1 1202.51 385.400   6
   3  -5   1 561.504 354.825   3
   3  -5   2 10433.8 935.200   3
  -3   5  -2 10189.7 946.093   7
   3   5   2 10677.8 1287.30   7
  -3   5  -2 12312.9 1053.96   6
  -3  -5  -3 108061. 3342.68   4
  -3   5  -3 102194. 3141.70   7
   3   5   3 105218. 3513.74   7
  -3   5  -3 98179.9 3155.57   6
   3  -5   3 106757. 3219.17   3
  -3   5  -4 3204.96 632.380   7
   3  -5   4 2904.21 601.853   3
  -3  -5  -4 3925.07 672.589   4
   3   5   4 3243.26 640.807   7
  -3   5  -4 2552.40 606.561   6
  -3  -5  -5 11252.1 1113.22   4
   3   5   5 10557.1 1080.73   7
   3  -5   5 11252.4 1083.89   3
  -3   5  -5 9798.50 1078.52   6
   3   5   6 2490.32 708.310   8
   3  -5   6 1789.55 469.628   3
  -3   5  -6 2391.27 614.842   6
  -3  -5  -6 2070.43 599.446   4
   3  -5   7 990.930 443.188   3
  -3   5  -7 2007.70 568.020   6
   3  -5   8 1705.82 571.516   3
  -3   5  -8 1281.88 573.477   6
   3  -5   9 389.183 373.437   3
  -3   5  -9-87.8178 419.372   6
  -3   5 -10 6997.53 1053.33   6
   3  -5  10 6035.32 979.976   3
  -3   5 -11 3079.19 791.641   6
  -3   6  12 99.6932 609.460   7
  -3  -6  12 615.971 482.679   3
  -3  -6  11 3011.75 730.333   3
  -3   6  11 3784.00 1190.79   7
  -3  -6  11 1662.68 659.556  10
  -3  -6  10 15.9578 409.911  10
  -3   6  10 1217.98 711.092   7
  -3  -6   9 1690.18 565.300  10
  -3   6   9 2742.43 945.774   7
   3  -6  -8 4481.01 1013.47   9
  -3   6   8 3790.86 881.101   7
  -3  -6   8 2974.46 606.493  10
   3  -6  -7 8771.33 1020.52   2
  -3  -6   7 8190.19 952.158  10
  -3   6   7 10477.7 1321.38   7
   3  -6  -7 7490.11 1143.77   9
   3  -6  -6 299.129 604.587   9
  -3   6   6 395.039 486.947   7
   3  -6  -6-95.0960 425.596   2
   3  -6  -5 13661.5 1243.98   2
   3  -6  -5 13158.9 1447.66   9
  -3   6   5 13787.7 1430.24   7
   3  -6  -4 35097.4 2266.96   9
  -3   6   4 35683.4 2405.68   7
   3  -6  -4 36452.9 1988.28   2
  -3  -6   3 22816.1 1266.82   9
  -3   6   3 23440.1 1928.66   7
  -3  -6   3 24339.6 1253.41   3
   3  -6  -3 26086.9 1920.84   9
  -3   6   2 83003.4 3224.33   7
  -3   6   2 85818.7 2552.91   6
   3  -6  -2 78355.2 3363.77   9
  -3  -6   2 84563.1 2613.33   9
  -3   6   1 380.593 357.375   7
  -3   6   1-13.9978 270.882   6
   3  -6  -1 184.029 606.125   9
  -3   6   0 15655.5 1265.59   7
  -3   6   0 17065.7 1211.81   6
   3  -6   0 14430.9 1458.35   9
  -3   6  -1 96762.8 3184.02   7
  -3   6  -1 94951.4 3076.23   6
   3  -6   1 99865.5 3893.66   9
  -3   6  -2 28291.4 1671.79   7
   3  -6   2 27985.6 2097.54   9
  -3   6  -2 30500.4 1751.41   6
   3  -6   2 28522.6 1659.18   3
   3  -6   3 5265.03 1036.34   9
   3   6   3 4756.36 1091.52   7
  -3   6  -3 4088.99 706.531   6
  -3   6  -3 4479.89 734.452   7
   3  -6   3 3809.59 682.826   3
   3  -6   4 5161.18 772.107   3
   3  -6   4 5480.15 1104.14   9
  -3   6  -4 4509.36 748.255   7
   3   6   4 5719.89 1105.16   7
  -3   6  -4 4601.07 777.331   6
   3   6   5 10836.4 1328.51   7
  -3   6  -5 10480.3 1101.94   7
   3  -6   5 12070.2 1208.51   3
  -3   6  -5 11659.2 1212.71   6
   3  -6   6 1137.12 450.232   3
   3   6   6 1615.03 601.300   7
  -3   6  -6 1419.30 581.551   6
   3   6   7 3917.82 841.820   7
  -3   6  -7 4062.30 854.865   6
   3  -6   7 2816.71 666.902   3
   3   6   8-166.516 515.558   7
  -3   6  -8 334.415 456.173   6
   3  -6   8-303.757 454.030   3
   3  -6   9 4363.22 859.606   3
   3   6   9 5601.04 989.169   7
  -3   6  -9 4737.77 963.743   6
   3   6  10 360.956 527.604   7
  -3   7  11 1770.78 843.552   7
  -3  -7  11 4059.75 885.432   3
  -3   7  10 6244.13 1141.00   7
  -3  -7  10 6176.29 1016.05   3
  -3   7   9-581.532 585.531   7
  -3  -7   9-96.5551 322.434   3
  -3   7   8 1863.28 751.998   7
  -3  -7   8 1695.37 521.686   3
   3  -7  -7 887.363 625.291   9
  -3   7   7 1494.62 613.563   7
  -3  -7   7 2139.36 518.614   3
  -3   7   6 2280.10 705.320   7
  -3  -7   6 1490.52 467.416   3
   3  -7  -6 840.244 588.628   9
  -3   7   5 11060.3 1446.75   7
   3  -7  -5 11666.5 1452.75   9
  -3  -7   5 13187.1 1099.96   3
   3  -7  -4 16098.5 1681.56   9
  -3   7   4 13600.6 1865.35   7
   3  -7  -3 5078.37 1074.88   9
  -3   7   3 4935.19 1041.85   7
  -3   7   2 30719.5 2036.36   7
   3  -7  -2 27868.8 2114.41   9
   3  -7  -1 43704.1 2619.74   9
  -3   7   1 44852.8 2332.47   7
  -3   7   1 45088.9 2036.49   6
   3  -7   0 58384.4 3020.60   9
  -3   7   0 59120.6 2650.68   7
  -3   7   0 62802.3 2515.72   6
   3  -7   1 76.6795 550.223   9
  -3   7  -1 101.528 344.044   7
  -3   7  -1-77.3192 329.227   6
  -3   7  -2 6557.62 887.121   7
   3  -7   2 6325.38 1074.03   9
  -3   7  -2 7186.38 961.134   6
  -3   7  -3 49633.7 2412.14   7
  -3   7  -3 48113.9 2453.89   6
   3  -7   3 46561.5 2357.58   3
   3  -7   3 45451.6 2741.79   9
   3  -7   4 1994.90 631.981   3
   3  -7   4 3159.72 936.813   9
  -3   7  -4 2444.86 658.047   7
  -3   7  -4 1976.80 641.144   6
   3  -7   5 4329.94 819.481   3
   3  -7   5 4758.31 1047.27   9
  -3   7  -5 5374.92 933.949   6
  -3   7  -5 4538.69 800.328   7
   3  -7   6 674.699 593.003   9
   3  -7   6 912.016 450.628   3
  -3   7  -6 1705.89 686.647   6
  -3   7  -7 1093.54 479.559   6
   3  -7   7 313.330 370.928   3
   3  -7   8 794.750 487.133   3
  -3  -8   9 223.825 312.433   3
  -3   8   9-325.119 585.375   7
  -3   8   8 643.113 666.243   7
  -3  -8   8 1516.08 557.741   3
  -3   8   7 3084.02 968.098   7
  -3  -8   7 3194.45 661.888   3
   3  -8  -7 4538.25 1063.38   9
  -3   8   6-504.818 605.329   7
   3  -8  -6-1004.37 822.801   9
  -3   8   5 7575.86 1492.43   7
   3  -8  -5 3223.02 911.007   9
   3  -8  -4 14362.7 1687.59   9
  -3   8   4 17455.2 1986.86   7
  -3   8   3 12582.5 1500.11   7
   3  -8  -3 13797.9 1625.25   9
  -3   8   2 35784.3 2285.29   7
   3  -8  -2 35609.2 2505.89   9
   3  -8  -1 13.1981 479.959   9
  -3   8   1 12.9489 390.528   7
   3  -8   0 8445.17 1244.52   9
  -3   8   0 9823.38 1095.08   6
  -3   8   0 8196.93 1074.07   7
   3  -8   1 42773.6 2709.32   9
  -3   8  -1 43741.6 2386.00   7
  -3   8  -1 45808.3 2362.57   6
   3  -8   2 13415.7 1541.68   9
  -3   8  -2 14139.2 1379.89   7
  -3   8  -2 13039.1 1334.28   6
   3  -8   3 372.599 516.875   9
  -3   8  -3 2672.51 666.982   6
   3  -8   4 1109.72 675.330   9
  -3   8  -4 3100.37 764.626   6
   3  -8   5 4887.59 1006.71   9
  -3   8  -5 5020.58 944.591   6
   3  -8   5 5276.49 939.247   3
   3  -8   6 810.325 518.810   3
  -3   9   6 2296.27 1027.72   7
   3  -9  -5 5349.47 1142.00   9
  -3   9   5 5570.27 1513.51   7
   3  -9  -4 5512.91 1121.26   9
  -3   9   4 5500.21 1251.24   7
   3  -9  -3 1673.67 799.387   9
  -3   9   3 1734.89 781.351   7
  -3   9   2 13954.8 1550.14   7
   3  -9  -2 11669.8 1554.35   9
   3  -9  -1 18322.6 1891.94   9
   3  -9   0 23657.8 2135.43   9
   3  -9   1-132.631 491.422   9
  -3   9  -2 4629.28 888.005   6
   3  -9   2 1850.48 734.109   9
   3  -9   3 19732.0 1901.01   9
  -3   9  -3 22193.7 1871.59   6
   4   0 -15 2123.19 678.708   2
   4   0 -14 1698.72 668.337   2
   4   0 -13 773.595 502.420   2
   4   0 -12 33707.0 2084.16   2
   4   0 -11 23201.7 1645.32   2
   4   0 -10 11361.3 1092.82   2
   4   0  -9 33437.0 1422.34   5
  -4   0   9 33289.9 1710.61   1
   4   0  -9 32411.6 1759.82   2
  -4   0   8 177475. 4156.04   1
   4   0  -8 170960. 4190.39   2
  -4   0   8 176654. 3639.31   7
   4   0  -8 168220. 3572.44   5
   4   0  -7 96736.9 2938.42   2
  -4   0   7 99256.1 2947.73   1
  -4   0   7 98854.4 2427.80   7
   4   0  -7 95032.8 2516.36   5
   4   0  -7 98968.7 1877.39   8
   4   0  -6 46456.7 1792.21   5
   4   0  -6 44340.7 1982.58   2
  -4   0   6 47337.3 1574.51   7
   4   0  -6 47250.8 1278.89   8
  -4   0   6 47639.7 2128.77   1
   4   0  -5 100602. 3012.85   2
   4   0  -5 107565. 2258.26   8
  -4   0   5 107174. 2503.65   7
   4   0  -5 105904. 2078.31   9
  -4   0   5 107327. 2981.58   1
   4   0  -5 99538.6 2793.43   5
   4   0  -4 48746.5 1199.59   9
  -4   0   4 44542.2 1329.69   4
  -4   0   4 48084.0 1392.70   7
   4   0  -4 44640.5 1643.37   2
  -4   0   4 44302.5 1634.82   1
   4   0  -4 47159.8 1478.96   8
  -4   0   3 236636. 3927.23   7
  -4   0   3 236658. 4416.05   4
  -4   0   3 242534. 4938.77   1
   4   0  -3 238994. 4253.71   8
  -4   0   2 16469.4 855.761   4
   4   0  -2 16778.9 1012.04   8
  -4   0   2 17915.8 749.530   7
   4   0  -1 44421.4 1916.68   8
  -4   0   1 46990.8 1307.24   7
  -4   0   1 46925.9 1478.24   4
  -4   0   1 44808.6 1093.74  10
   4   0   0 26642.8 1753.84   8
  -4   0   0 26286.7 1011.65   7
  -4   0   0 23406.5 1088.79   4
   4   0   1 27282.2 1519.41   8
  -4   0  -1 27955.7 1248.11   4
   4   0   2 30518.5 1529.23   8
  -4   0  -2 29505.9 1360.29   4
   4   0   3 6915.57 773.416   8
  -4   0  -3 6761.01 720.505   4
   4   0   4 52254.8 2023.52   8
  -4   0  -4 51754.0 2022.58   4
   4   0   4 50533.2 1650.59   3
  -4   0  -5 119.082 321.305   4
   4   0   5 331.544 326.213   8
   4   0   5 282.912 239.847   3
   4   0   6 2417.41 554.577   8
  -4   0  -6 2471.35 565.703   4
   4   0   6 2398.70 426.243   3
   4   0   7 5077.38 711.959   8
   4   0   7 4037.71 548.748   3
  -4   0  -7 6049.49 864.188   4
  -4   0  -8 504.672 523.033   4
  -4   0  -9 11249.2 1265.41   4
  -4   0 -10 1272.18 548.623   4
  -4   0 -11 520.274 561.962   4
  -4   1  16 252.081 438.929   7
   4   1 -15-255.554 456.995   2
   4  -1 -15 535.965 655.168   2
  -4   1  15 214.840 544.990   7
   4   1 -14 204.450 430.444   2
   4  -1 -14 678.047 471.812   2
  -4   1  14-96.3512 419.840   7
   4  -1 -13 20995.2 1756.12   2
   4   1 -13 17359.7 1542.22   2
  -4   1  13 19390.7 1531.69   7
   4   1 -12 417.005 352.756   2
  -4   1  12 652.694 377.362   7
   4  -1 -12 1138.61 548.303   2
   4   1 -11 475.595 359.128   2
   4  -1 -11 425.358 407.560   2
  -4   1  11 760.402 417.672   7
   4  -1 -10 151711. 4338.65   2
   4   1 -10 148355. 4067.06   2
  -4   1  10 153200. 4042.22   1
  -4   1  10 137819. 3757.99   7
  -4   1   9 27319.5 1607.43   1
  -4   1   9 30694.4 1563.86   7
   4  -1  -9 30658.8 1785.61   2
   4  -1  -9 29631.2 1196.08   5
   4   1  -9 29664.1 1615.86   2
   4  -1  -8 58387.2 1751.03   5
  -4   1   8 61601.5 2484.04   1
   4  -1  -8 64762.3 2588.19   2
   4   1  -8 57359.5 2159.49   2
  -4   1   8 59896.7 2113.55   7
  -4  -1   8 59133.5 2226.67   1
   4   1  -8 59404.0 1593.10   8
   4   1  -8 58774.9 2048.45   5
  -4  -1   7 145004. 3555.98   1
   4   1  -7 149632. 3416.88   5
  -4   1   7 149492. 4101.71   1
   4  -1  -7 146112. 4182.78   2
  -4   1   7 153478. 3511.98   7
  -4  -1   7 147061. 2852.44   7
   4  -1  -7 150374. 3278.12   5
   4  -1  -7 149360. 3548.99   9
   4  -1  -7 147298. 2303.83   8
   4   1  -7 149647. 2867.44   8
   4   1  -7 148546. 3501.52   2
   4  -1  -6 94511.1 1896.02   8
   4  -1  -6 91813.8 2480.10   9
   4   1  -6 90065.3 2505.28   2
  -4  -1   6 92534.3 2606.05   1
   4  -1  -6 90965.6 3035.96   2
   4  -1  -6 88767.9 2384.86   5
  -4   1   6 92839.5 2634.86   7
  -4  -1   6 89735.3 1971.37   7
   4   1  -6 88078.1 2102.56   8
   4   1  -6 88056.8 2495.97   5
  -4   1   6 90213.9 2642.24   1
   4  -1  -5 231040. 3827.75   8
   4   1  -5 234298. 4424.39   2
  -4  -1   5 225228. 4480.14   1
   4   1  -5 222023. 3981.22   8
   4  -1  -5 234147. 4108.23   9
  -4   1   5 224653. 4421.21   7
   4   1  -5 223418. 4529.37   5
  -4   1   5 226256. 4461.44   1
  -4  -1   5 231225. 3661.59   7
   4  -1  -5 224725. 4619.50   2
   4   1  -4 2534.93 432.012   8
  -4   1   4 3246.39 381.342   4
   4  -1  -4 2925.30 418.414   8
   4  -1  -4 2559.71 414.146   9
  -4  -1   4 3095.25 285.446   7
   4   1  -4 2929.34 639.963   5
  -4  -1   4 2661.43 497.557   1
   4   1  -4 2791.13 534.764   2
  -4   1   4 3339.36 487.536   7
  -4   1   4 2827.40 546.768   1
   4   1  -3-65.9769 248.740   2
   4  -1  -3 270.537 301.109   8
  -4  -1   3 443.164 311.535   1
   4   1  -3 250.186 275.407   8
  -4   1   3 341.153 187.863   4
  -4  -1   3 262.668 119.761   7
  -4  -1   3 126.256 242.820   4
  -4   1   3 308.078 329.792   7
  -4   1   2 35502.1 1137.97   4
   4   1  -2 36461.1 1616.23   8
   4  -1  -2 35344.8 1452.70   8
  -4  -1   2 37068.9 1647.64   4
  -4  -1   2 38371.3 920.945   7
  -4   1   2 36780.5 1335.00   7
  -4  -1   2 36991.9 1385.31   1
  -4  -1   2 34855.3 1174.17  10
  -4   1   1 7487.88 557.951   4
  -4  -1   1 8078.87 744.522   4
  -4   1   1 7965.66 603.313   7
   4   1  -1 6754.54 867.848   8
  -4  -1   1 6962.05 488.724  10
   4  -1  -1 7598.85 718.678   8
   4   1   0 2611.32 671.104   8
   4  -1   0 2068.01 474.281   8
  -4   1   0 2315.61 379.435   4
  -4   1   0 1568.06 324.485   7
  -4  -1   0 1961.47 437.037   4
   4  -1   1 55440.0 1953.69   8
  -4  -1  -1 55936.9 1923.16   4
  -4   1  -1 59707.3 1794.98   7
  -4   1  -1 56626.3 1821.72   4
   4   1   1 55092.1 2275.04   8
   4  -1   2 5083.40 648.765   8
  -4   1  -2 5865.42 641.139   4
   4   1   2 4903.11 809.339   8
  -4  -1  -2 6312.68 668.245   4
  -4  -1  -3 22913.7 1272.97   4
   4  -1   3 20894.9 1258.72   8
   4   1   3 20903.3 1568.33   8
  -4   1  -3 20055.5 1201.98   4
   4  -1   3 22160.5 1101.58   3
  -4   1  -4 36463.8 1705.94   4
   4  -1   4 35805.9 1676.92   8
   4   1   4 37889.4 1854.27   8
   4  -1   4 35344.0 1473.47   3
  -4  -1  -4 32814.3 1623.57   4
   4  -1   5 1727.76 542.159   8
   4   1   5 1706.45 513.255   8
  -4   1  -5 1928.53 532.556   4
  -4  -1  -5 2104.18 463.435   4
   4  -1   5 2125.96 432.234   3
  -4   1  -6 27136.9 1665.61   4
  -4  -1  -6 25829.7 1581.36   4
   4   1   6 29201.5 1577.25   8
   4  -1   6 26665.0 1402.57   3
   4  -1   6 28338.4 1554.30   8
   4  -1   7 16652.6 1243.82   8
  -4   1  -7 15920.5 1335.18   4
  -4  -1  -7 16670.9 1333.87   4
   4  -1   7 14031.1 1077.71   3
   4   1   7 17129.7 1232.71   8
  -4  -1  -8 203.672 362.372   4
   4  -1   8 153.337 287.801   3
  -4   1  -8-164.447 429.136   4
   4  -1   9 3816.04 626.852   3
  -4   1  -9 3266.28 716.188   4
  -4  -1  -9 3556.24 784.938   4
  -4   1 -10 27298.8 1989.43   4
  -4  -1 -10 28678.7 2059.83   4
  -4   1 -11 3368.50 827.095   4
  -4   1 -12 2698.82 842.662   4
  -4   2  16 1660.78 700.286   7
   4  -2 -15 3334.71 901.492   2
   4   2 -15 2670.34 727.723   2
  -4   2  15 2783.19 767.997   7
   4  -2 -14 438.815 444.824   2
  -4   2  14 1357.31 580.029   7
   4   2 -14 1040.39 499.280   2
   4   2 -13 1194.28 562.918   2
  -4   2  13 399.630 433.532   7
   4  -2 -13 609.107 533.684   2
   4   2 -12 28076.6 1877.64   2
  -4   2  12 28543.5 1890.63   7
   4   2 -11 18233.6 1445.69   2
  -4   2  11 19851.3 1502.58   7
  -4   2  11 20816.0 1432.63   1
   4  -2 -11 19874.7 1593.04   2
   4   2 -10 8326.57 932.031   2
  -4   2  10 9865.36 993.219   1
  -4   2  10 10445.7 1059.79   7
   4  -2 -10 12303.9 1254.09   2
   4  -2  -9 30831.7 1901.49   2
  -4   2   9 30800.9 1823.20   1
  -4   2   9 28884.0 1672.76   7
   4   2  -9 28600.2 1553.97   2
   4  -2  -8 156600. 4569.88   2
   4   2  -8 148040. 3614.23   2
  -4   2   8 151220. 4118.14   1
  -4   2   8 160473. 4064.40   7
   4   2  -8 148331. 3712.92   5
   4   2  -7 82664.7 2561.63   5
  -4   2   7 85146.7 2833.58   7
  -4   2   7 80322.6 2546.24   1
   4  -2  -7 83866.7 2772.07   9
   4  -2  -7 78093.4 3069.69   2
   4  -2  -7 83585.9 2178.80   5
   4   2  -7 83298.3 2401.29   2
   4  -2  -6 38678.7 1184.70   8
   4   2  -6 37592.0 1451.92   2
  -4   2   6 34900.2 1803.04   7
  -4  -2   6 37545.1 962.899   7
  -4  -2   6 34861.1 1538.28   1
  -4   2   6 38018.2 1634.57   1
   4   2  -6 36991.6 1630.07   5
   4  -2  -6 35887.1 1795.96   2
   4  -2  -6 37466.8 1704.00   9
   4  -2  -5 92098.2 2072.99   8
   4   2  -5 87914.0 2148.19   2
  -4   2   5 85821.5 2878.59   1
  -4  -2   5 87086.5 2385.24   1
  -4  -2   5 80590.6 1359.38   7
  -4   2   5 93430.8 2723.47   7
   4  -2  -5 89380.5 2578.15   9
   4   2  -5 86666.5 2515.04   5
   4  -2  -5 91814.9 2754.76   2
  -4   2   4 40509.8 945.021   4
   4  -2  -4 39678.9 1376.81   8
  -4  -2   4 38184.8 1441.22   1
  -4   2   4 40473.1 1667.26   7
   4   2  -4 38007.0 1619.54   5
   4  -2  -4 38962.4 1603.05   9
   4   2  -4 39086.6 1259.90   2
  -4   2   3 184077. 2972.37   4
   4  -2  -3 186215. 3631.53   8
  -4  -2   3 182210. 3494.30   1
   4   2  -3 188810. 4038.64   5
  -4  -2   3 185342. 4087.56   4
  -4   2   3 190977. 4145.19   7
   4   2  -3 185146. 3214.42   2
  -4  -2   3 191935. 3603.15  10
   4  -2  -3 186516. 3910.22   9
   4  -2  -2 11319.5 829.466   8
   4   2  -2 10516.9 947.347   5
  -4  -2   2 12374.1 942.098   4
  -4   2   2 13128.9 944.827   7
  -4  -2   2 13325.6 817.395  10
  -4   2   2 12413.3 668.855   4
  -4  -2   2 12505.3 741.910   1
   4   2  -2 12497.8 649.674   2
  -4   2   1 34509.4 1246.14   4
   4   2  -1 34679.5 1475.46   8
  -4  -2   1 34398.9 1260.43   1
  -4  -2   1 37048.4 1742.61   4
   4  -2  -1 34378.4 1458.54   8
  -4   2   1 35812.6 1432.01   7
  -4   2   0 18075.9 970.090   4
   4  -2   0 18803.7 1105.55   8
   4   2   0 18012.3 1124.77   8
  -4  -2   0 17355.2 1377.66   4
  -4   2   0 20338.2 1085.22   7
  -4  -2   0 18063.5 966.786   1
   4  -2   1 22888.5 1263.62   8
  -4  -2  -1 26223.0 1089.29   1
   4   2   1 24739.4 1455.47   8
  -4   2  -1 24888.0 1223.57   4
  -4  -2  -1 24751.3 1525.65   4
  -4   2  -1 24275.3 1213.07   7
   4  -2   2 24860.7 1359.89   8
   4   2   2 26334.4 1789.03   8
  -4  -2  -2 26548.4 1491.62   4
  -4   2  -2 24016.0 1260.00   7
   4  -2   2 25479.4 1243.33   3
  -4   2  -2 24290.6 1287.64   4
   4  -2   3 6553.78 752.292   8
   4   2   3 7629.60 1132.57   8
  -4   2  -3 8290.94 842.683   4
   4  -2   3 7433.63 710.573   3
  -4  -2  -3 8133.77 875.826   4
   4   2   4 45446.1 2861.69   8
   4  -2   4 45355.0 1958.52   8
  -4   2  -4 44175.5 1981.61   4
  -4  -2  -4 47377.0 2094.20   4
   4  -2   4 43163.2 1762.95   3
   4   2   5-125.792 612.767   8
   4  -2   5-119.435 346.070   8
  -4   2  -5 209.906 445.290   4
  -4  -2  -5 939.569 456.673   4
   4  -2   5 51.5291 220.779   3
   4  -2   6 3148.60 619.921   8
   4   2   6 2589.00 598.452   8
  -4   2  -6 2002.30 541.652   4
  -4  -2  -6 2323.94 572.006   4
   4  -2   6 3051.97 541.951   3
   4  -2   7 5030.84 772.771   8
  -4   2  -7 5840.15 868.118   4
  -4  -2  -7 4815.81 813.277   4
   4  -2   7 4796.83 693.036   3
  -4   2  -8 86.9513 473.866   4
  -4  -2  -8 190.891 400.410   4
   4  -2   8 441.479 339.515   3
  -4   2  -9 10078.2 1224.58   4
  -4  -2  -9 9969.73 1233.09   4
   4  -2   9 9461.39 1005.24   3
  -4   2 -10 1409.60 517.218   4
   4  -2  10 805.450 432.139   3
  -4   2 -11-465.354 526.708   4
  -4   2 -12 21765.2 2016.98   4
   4  -3 -15 472.250 600.086   2
   4   3 -15-45.4299 403.111   2
  -4   3  15-80.4943 481.910   7
   4  -3 -14-217.392 494.700   2
   4   3 -14-248.670 423.925   2
  -4   3  14 966.178 642.497   7
   4  -3 -13 14778.8 1574.71   2
   4   3 -13 12663.6 1324.49   2
  -4   3  13 14471.8 1560.34   7
   4   3 -12-107.698 374.865   2
   4  -3 -12 270.896 385.237   2
  -4   3  12-156.588 498.384   7
   4   3 -11 510.969 326.626   2
  -4   3  11 170.469 422.043   7
   4  -3 -11 28.8381 434.115   2
   4  -3 -10 116432. 4015.84   2
   4   3 -10 107839. 3337.59   2
  -4   3  10 108367. 3808.04   7
  -4   3  10 118490. 3693.08   1
   4   3  -9 24471.3 1405.85   2
  -4   3   9 24230.5 1612.46   1
   4  -3  -9 27204.2 1918.26   2
  -4   3   9 23483.3 1693.92   7
  -4   3   8 45204.9 1937.74   1
   4   3  -8 42894.8 1755.94   2
   4  -3  -8 42470.7 2178.59   9
  -4   3   8 41104.9 2210.60   7
   4  -3  -8 46972.1 2549.98   2
   4   3  -7 109192. 3186.19   5
   4   3  -7 104111. 2691.20   2
  -4   3   7 108817. 3725.48   7
  -4   3   7 107363. 2977.23   1
   4  -3  -7 103543. 3515.54   2
   4  -3  -7 110453. 3513.86   9
  -4   3   6 65073.0 2598.17   7
   4  -3  -6 66283.6 2585.54   9
   4   3  -6 66309.1 1906.37   2
   4   3  -6 68434.4 2387.07   5
  -4   3   6 69679.0 2597.94   1
   4  -3  -6 66053.5 2510.18   2
  -4   3   5 167065. 4107.25   7
   4  -3  -5 161841. 4098.19   9
   4   3  -5 163686. 3044.54   2
   4  -3  -5 167753. 3385.18   8
   4   3  -5 157754. 3796.56   5
   4   3  -4 1169.06 215.086   2
  -4   3   4 1050.59 180.481   4
   4   3  -4 1009.90 359.592   5
  -4   3   4 1856.82 535.926   7
   4  -3  -4 1234.36 507.927   9
  -4  -3   4 1116.01 443.260  10
   4  -3  -4 1343.85 338.182   8
  -4   3   3 217.911 161.163   4
   4   3  -3 225.239 118.528   2
   4   3  -3 253.428 255.545   5
   4  -3  -3 318.447 398.318   9
  -4   3   3-151.216 455.174   7
  -4  -3   3 93.4794 286.172  10
   4  -3  -3 573.208 316.917   8
   4   3  -2 21528.3 536.722   2
  -4  -3   2 24929.4 986.269   1
  -4  -3   2 25631.2 1657.07   4
  -4   3   2 24346.6 1416.11   7
   4  -3  -2 26794.5 1303.80   8
   4   3  -2 24450.3 1265.46   5
   4  -3  -2 24700.8 1481.23   9
   4  -3  -1 5903.74 679.634   8
  -4  -3   1 5863.54 813.947   4
  -4  -3   1 5828.19 437.523   1
  -4   3   1 5280.95 662.825   7
   4   3  -1 5528.28 614.280   5
  -4  -3   0 1522.41 217.874   1
   4  -3   0 1868.05 501.781   8
  -4   3   0 1193.21 393.388   7
  -4  -3   0 1499.92 557.899   4
   4   3   0 1536.97 375.820   5
  -4  -3  -1 36582.4 2008.24   4
  -4  -3  -1 36834.0 875.540   1
  -4   3  -1 35008.7 1579.38   7
  -4   3  -1 34930.9 1541.68   6
   4  -3   1 35015.5 1653.29   8
   4   3   1 38332.0 1596.21   5
   4  -3   2 3630.80 621.304   8
  -4   3  -2 3546.11 567.303   6
   4   3   2 3637.64 620.128   8
  -4   3  -2 4372.25 623.174   7
  -4  -3  -2 3916.55 819.932   4
   4  -3   2 4269.03 575.548   3
   4  -3   3 15179.8 1160.46   8
  -4  -3  -3 12699.5 1384.51   4
   4   3   3 18286.1 1433.77   8
  -4   3  -3 14475.9 1102.37   7
   4  -3   3 15528.6 1089.15   3
  -4   3  -3 13804.3 1074.13   6
   4  -3   4 23220.7 1455.60   8
   4   3   4 27088.4 2142.89   8
  -4  -3  -4 26238.5 1962.60   4
   4  -3   4 23979.7 1400.24   3
  -4   3  -4 24092.8 1443.97   6
   4  -3   5 1177.01 468.898   8
   4   3   5 1543.83 893.984   8
  -4  -3  -5 1657.74 656.772   4
  -4   3  -5 1355.57 453.322   6
   4  -3   5 2184.56 497.284   3
   4  -3   6 18744.6 1388.47   8
  -4  -3  -6 20920.1 1810.98   4
   4  -3   6 19433.7 1355.98   3
  -4   3  -6 20483.1 1534.00   4
  -4   3  -6 21491.9 1471.26   6
   4   3   6 22851.3 1900.28   8
   4  -3   7 11930.5 1123.46   8
  -4   3  -7 11351.5 1200.19   4
  -4  -3  -7 12881.0 1504.60   4
  -4   3  -7 11657.9 1137.60   6
   4  -3   7 10697.2 1066.84   3
  -4  -3  -8-149.762 537.770   4
   4  -3   8 118.942 341.654   8
  -4   3  -8-32.3752 446.668   4
   4  -3   8 885.134 382.193   3
  -4   3  -9 2211.48 726.908   4
   4  -3   9 3466.46 691.249   3
   4  -3  10 19599.7 1636.27   3
  -4   3 -10 23347.9 1983.88   4
  -4   3 -11 4266.88 987.835   4
   4  -3  11 3994.19 891.971   3
   4  -4 -15 1957.08 698.132   2
   4   4 -15 2169.35 688.009   2
   4  -4 -14 1824.55 708.360   2
   4   4 -14 1457.96 612.206   2
  -4   4  14 831.780 669.352   7
   4   4 -13 468.606 418.284   2
   4  -4 -13 74.7582 465.447   2
  -4   4  13 537.949 581.560   7
   4   4 -12 19141.4 1518.59   2
  -4   4  12 19781.8 1880.92   7
   4  -4 -12 21735.0 1835.47   2
   4  -4 -11 16228.6 1540.07   2
   4   4 -11 12797.3 1155.91   2
  -4   4  11 16788.9 1713.95   7
   4   4 -10 7169.21 815.355   2
  -4   4  10 7653.03 1147.22   7
   4  -4 -10 6902.97 1036.24   2
   4  -4  -9 21587.1 1774.47   2
   4   4  -9 18622.9 1225.92   2
  -4   4   9 21457.0 1834.64   7
   4  -4  -8 96918.0 3650.28   9
   4   4  -8 110985. 2908.12   2
  -4   4   8 105402. 3021.67   1
  -4   4   8 96964.6 3819.61   7
   4  -4  -8 103206. 3910.07   2
   4  -4  -7 59849.7 2623.46   2
   4  -4  -7 56285.4 2696.10   9
   4   4  -7 55059.3 1837.20   2
  -4   4   7 54337.5 2676.92   7
  -4   4   7 55894.5 2156.27   1
   4   4  -6 23249.3 1039.88   2
  -4   4   6 23186.0 1622.04   7
   4  -4  -6 24356.5 1546.33   2
  -4  -4   6 21370.6 1408.62  10
   4  -4  -6 21351.2 1594.08   9
  -4   4   5 54289.4 2382.66   7
   4   4  -5 54830.3 2198.47   5
  -4  -4   5 52936.8 2082.02  10
   4  -4  -5 55037.4 2521.23   9
   4   4  -4 28447.6 1515.68   5
   4  -4  -4 28797.7 1412.95   8
  -4   4   4 27794.9 1706.43   7
   4  -4  -4 25692.7 1718.17   9
  -4  -4   4 27562.4 1437.03  10
  -4   4   3 108407. 3714.23   7
   4  -4  -3 110266. 2996.38   8
   4   4  -3 106346. 3003.54   5
   4  -4  -3 106098. 3536.12   9
   4  -4  -2 7164.89 770.508   8
   4  -4  -2 6687.79 985.867   9
  -4   4   2 6777.06 889.292   7
   4   4  -2 5780.37 660.976   5
   4  -4  -1 20159.4 1296.09   8
   4  -4  -1 20036.8 1564.50   9
  -4   4   1 18956.0 1288.82   7
   4   4  -1 18843.1 906.217   7
   4   4  -1 18899.7 1133.45   5
   4  -4   0 8341.19 862.216   8
  -4   4   0 9635.09 929.513   7
   4   4   0 9449.19 825.369   7
  -4  -4   0 9632.88 1262.32   4
  -4   4   0 9842.86 853.399   6
   4   4   0 9876.67 811.790   5
  -4   4  -1 14336.9 1079.38   6
   4  -4   1 12960.1 1097.75   8
  -4  -4  -1 14886.3 1604.09   4
  -4   4  -1 14458.3 1116.57   7
   4   4   1 13758.1 927.349   5
  -4  -4  -2 14852.8 1560.51   4
   4  -4   2 15538.5 1224.62   8
  -4   4  -2 15727.5 1151.00   6
   4  -4   2 14486.1 1095.36   3
   4   4   2 15479.2 965.370   5
  -4   4  -2 16798.2 1216.07   7
   4  -4   3 4864.69 741.677   8
   4   4   3 6019.33 789.800   8
  -4   4  -3 5341.59 733.068   7
  -4  -4  -3 6588.61 1157.44   4
   4  -4   3 5543.04 739.577   3
  -4   4  -3 5823.50 761.119   6
   4   4   4 32196.2 1993.62   8
  -4   4  -4 28398.8 1676.08   7
   4  -4   4 28048.3 1693.66   8
   4  -4   4 30028.6 1676.71   3
  -4   4  -4 33063.4 1769.58   6
  -4  -4  -4 27787.4 2322.51   4
   4   4   5-625.139 622.766   8
   4  -4   5-157.681 376.177   8
  -4  -4  -5 495.415 832.331   4
  -4   4  -5 202.606 331.428   6
   4  -4   5-116.281 298.042   3
   4  -4   6 2273.68 587.355   8
  -4  -4  -6 3918.09 1389.92   4
   4   4   6 2109.97 1044.83   8
  -4   4  -6 1628.72 515.575   6
   4  -4   6 1835.88 494.318   3
   4  -4   7 3954.42 739.852   8
  -4  -4  -7 2897.44 1337.30   4
  -4   4  -7 3827.38 756.174   6
   4  -4   7 3831.05 725.120   3
   4  -4   8 937.537 483.494   8
  -4   4  -8-208.491 392.842   6
   4  -4   8 63.8703 470.378   3
  -4   4  -8 628.431 626.036   4
  -4   4  -9 8128.82 1223.33   4
  -4   4  -9 6405.14 1000.05   6
   4  -4   9 7208.58 1026.00   3
  -4   4 -10 389.143 608.246   4
   4  -4  10 342.313 389.647   3
   4  -4  11 57.7628 343.787   3
   4  -5 -14 535.796 471.800   2
   4  -5 -13 11427.3 1374.57   2
  -4   5  13 9746.05 1557.62   7
  -4   5  12-765.146 672.170   7
   4  -5 -12-399.583 497.048   2
  -4   5  11 284.957 561.096   7
   4  -5 -11-161.923 477.943   2
  -4   5  10 72199.7 3674.23   7
  -4  -5  10 64605.3 3011.16  10
   4  -5 -10 67527.0 3193.33   2
  -4  -5   9 17167.2 1456.99  10
   4  -5  -9 14415.4 1510.01   2
  -4   5   9 16876.8 1697.19   7
   4  -5  -9 15972.8 1625.76   9
   4  -5  -8 21585.0 1784.49   2
  -4   5   8 22651.6 1852.18   7
   4  -5  -8 21472.6 1831.03   9
  -4  -5   8 25453.9 1680.61  10
   4  -5  -7 57276.9 2926.50   9
  -4   5   7 59052.4 2836.65   7
  -4  -5   7 60213.5 2493.40  10
   4  -5  -6 40040.8 2402.23   9
  -4   5   6 45553.5 2380.73   7
   4  -5  -6 45981.6 2248.22   2
  -4  -5   6 43038.9 2037.92  10
   4  -5  -5 97471.2 3345.81   2
  -4   5   5 89435.5 3368.43   7
   4  -5  -5 88662.3 3610.01   9
  -4  -5   5 87612.5 2865.44  10
   4  -5  -4 1184.09 761.298   9
  -4   5   4 1453.92 583.979   7
   4   5  -3 150.343 325.590   5
   4  -5  -3-791.098 714.210   9
   4  -5  -2 14259.7 1498.04   9
   4   5  -2 13440.3 1045.79   5
  -4   5   2 16426.4 1378.54   7
   4  -5  -1 3159.15 930.927   9
   4  -5  -1 3495.43 658.071   8
   4   5  -1 4405.55 617.453   5
  -4   5   1 3366.09 688.549   7
  -4   5   1 2040.84 433.778   6
   4   5   0 1284.14 347.344   5
   4  -5   0 1299.74 706.632   9
   4  -5   0 178.059 378.221   8
  -4   5   0 368.798 348.770   7
  -4   5   0 944.924 313.796   6
   4  -5   1 20548.5 1480.98   8
  -4   5  -1 19257.8 1364.70   7
  -4   5  -1 20750.0 1353.82   6
   4   5   1 19550.6 1150.00   5
   4  -5   2 2726.14 620.885   8
  -4   5  -2 2723.16 581.982   7
  -4  -5  -2 2729.96 743.919   4
   4   5   2 4013.43 854.072   7
  -4   5  -2 3287.60 596.886   6
   4  -5   3 7792.58 982.668   8
  -4  -5  -3 10566.9 1235.86   4
  -4   5  -3 9271.23 1005.25   7
   4   5   3 8962.83 1008.41   7
   4  -5   3 7542.80 877.840   3
  -4   5  -3 7499.33 900.017   6
  -4   5  -4 13281.8 1210.83   7
  -4  -5  -4 15335.0 1542.73   4
   4  -5   4 13434.5 1273.16   8
   4   5   4 15978.4 1430.17   8
   4  -5   4 13845.5 1205.96   3
  -4   5  -4 14219.0 1269.31   6
   4  -5   5 499.603 415.093   8
   4   5   5 1015.68 487.545   8
  -4   5  -5 2193.08 596.226   6
  -4  -5  -5 2634.42 724.840   4
   4  -5   5 1374.74 490.284   3
  -4  -5  -6 13811.3 1490.31   4
   4   5   6 12942.9 1729.14   8
   4  -5   6 10289.5 1178.58   8
   4  -5   6 13502.4 1298.83   3
  -4   5  -6 10675.0 1209.98   6
   4  -5   7 4891.47 858.309   3
  -4   5  -7 9035.73 1124.07   6
   4  -5   8-412.383 354.801   3
  -4   5  -8-110.261 401.672   6
  -4   5  -9 593.497 554.024   4
  -4   5  -9 1648.43 736.137   6
   4  -5   9 249.635 427.459   3
  -4  -6  12 10964.7 1405.98  10
  -4   6  12 12181.8 1706.37   7
  -4   6  11 9926.10 1536.69   7
  -4  -6  11 9125.87 1265.19  10
  -4   6  10 3859.60 936.348   7
   4  -6 -10 3396.15 805.793   2
  -4  -6  10 3280.23 828.170  10
   4  -6  -9 9902.19 1237.15   2
  -4   6   9 11980.6 1479.62   7
  -4  -6   9 11398.6 1240.93  10
   4  -6  -9 10621.2 1422.68   9
   4  -6  -8 58540.2 3093.21   2
  -4   6   8 59267.0 3058.69   7
   4  -6  -8 54241.1 3125.51   9
  -4  -6   8 55072.8 2565.96  10
  -4   6   7 31362.6 2149.19   7
  -4  -6   7 28739.3 1779.28  10
   4  -6  -7 28378.6 2236.00   9
   4  -6  -6 12127.6 1227.06   2
   4  -6  -6 11030.6 1445.53   9
  -4   6   6 12912.0 1404.45   7
   4  -6  -5 30964.7 1910.19   2
  -4   6   5 28742.5 2060.53   7
   4  -6  -5 26102.2 2108.02   9
   4  -6  -4 15356.3 1653.86   9
  -4   6   4 14712.3 1560.11   7
  -4   6   3 50273.6 2917.14   7
   4  -6  -3 49982.9 2939.35   9
   4  -6  -2 1463.48 775.166   9
  -4   6   2 3659.29 822.651   7
  -4   6   1 8528.29 1036.95   7
  -4   6   1 10425.4 941.841   6
   4  -6   0 3815.64 1013.05   9
  -4   6   0 3221.58 694.317   7
  -4   6   0 4373.53 685.255   6
  -4   6  -1 6244.74 877.068   7
  -4   6  -1 6148.37 798.205   6
  -4   6  -2 7541.55 957.098   7
   4  -6   2 9222.17 1660.84   9
  -4   6  -2 8016.03 946.618   6
   4  -6   3 3489.56 683.773   3
   4  -6   3 4402.34 1241.54   9
  -4   6  -3 3647.20 759.736   7
  -4   6  -3 3918.44 731.372   6
  -4   6  -4 14062.8 1318.24   7
  -4   6  -4 14980.3 1376.79   6
   4  -6   4 17285.5 1450.66   3
   4   6   5-592.338 442.010   8
   4  -6   5-64.1459 393.888   3
  -4  -6  -5 203.226 413.922   4
  -4   6  -5-410.027 402.376   6
  -4   6  -6 1947.27 608.051   6
   4  -6   6 850.355 536.439   3
   4  -6   7 1551.47 523.493   3
   4   6   7 1408.87 587.572   7
   4   6   8-822.421 622.746   7
  -4   6  -8 161.138 472.876   6
   4  -6   8 70.2899 380.000   3
   4   6   9 4931.03 1060.16   7
  -4  -7  11 129.712 481.684  10
  -4   7  11 663.062 657.295   7
  -4  -7  11 657.713 433.188   3
  -4   7  10 37281.7 2691.15   7
  -4  -7  10 38745.5 2376.71   3
  -4  -7  10 35935.3 2261.64  10
  -4  -7   9 11465.8 1257.72   3
  -4   7   9 11518.4 1478.38   7
  -4   7   8 11220.3 1488.97   7
  -4  -7   8 10409.8 1128.13   3
   4  -7  -8 9168.70 1432.54   9
  -4   7   7 27802.2 2194.04   7
  -4  -7   7 30527.5 1856.81   3
   4  -7  -7 30889.4 2537.22   9
  -4   7   6 24210.8 1996.77   7
  -4  -7   6 25680.1 1608.58   3
   4  -7  -6 24222.8 2277.66   9
  -4   7   5 47122.0 2897.08   7
   4  -7  -5 41557.5 2922.89   9
  -4   7   4 889.279 826.210   7
   4  -7  -4 264.216 724.130   9
  -4   7   3 508.257 631.807   7
   4  -7  -3 642.033 639.928   9
   4  -7  -2 6459.42 1234.56   9
  -4   7   2 6460.89 1021.78   7
   4  -7  -1 1318.94 672.131   9
  -4   7   1 1815.87 627.690   7
  -4   7   1 2321.82 511.247   6
  -4   7   0 38.4010 358.030   7
   4  -7   0-408.877 700.406   9
  -4   7   0 170.403 333.554   6
   4  -7   1 10307.1 1497.33   9
  -4   7  -1 9485.58 1129.94   7
  -4   7  -1 10043.2 1105.30   6
   4  -7   2 1965.07 932.960   9
  -4   7  -2 1634.96 565.624   7
  -4   7  -2 1677.78 565.708   6
   4  -7   3 3201.93 1079.59   9
  -4   7  -3 4082.94 783.226   7
  -4   7  -3 3643.32 756.428   6
   4  -7   4 7171.76 1388.39   9
  -4   7  -4 5119.46 879.171   7
  -4   7  -4 6502.05 1000.27   6
   4  -7   5 2072.92 901.217   9
   4   7   5 1097.31 590.265   8
  -4   7  -5 595.296 405.824   6
   4  -7   5 1112.13 526.933   3
   4  -7   6 6117.87 1009.40   3
   4  -7   6 7135.74 1447.06   9
  -4   7  -6 5547.89 1000.96   6
   4  -7   7 5433.01 1223.34   9
  -4   7  -7 3510.53 852.304   6
   4  -7   7 3609.70 877.576   3
  -4   8   9 5659.06 1160.58   7
  -4  -8   9 6744.47 1007.83   3
  -4   8   8 32375.7 2550.78   7
   4  -8  -8 26737.6 2551.26   9
   4  -8  -7 14492.1 1878.35   9
  -4   8   7 20280.1 2049.22   7
  -4   8   6 4847.81 1100.14   7
   4  -8  -6 5185.69 1246.13   9
   4  -8  -5 10815.7 1614.54   9
  -4   8   5 14213.8 1894.42   7
   4  -8  -4 10027.8 1538.08   9
  -4   8   4 8461.25 1534.67   7
   4  -8  -3 21913.4 2135.63   9
  -4   8   3 22147.4 2043.61   7
   4  -8  -2 709.068 763.540   9
  -4   8   2 824.815 537.169   7
  -4   8   1 3261.99 821.444   7
   4  -8  -1 3399.10 1122.26   9
   4  -8   0 534.686 617.503   9
  -4   8   0 940.430 443.352   7
  -4   8   0 1308.73 519.809   6
   4  -8   1 2689.48 814.876   9
  -4   8  -1 2191.85 693.230   7
  -4   8  -1 2805.50 720.431   6
   4  -8   2 1642.99 776.645   9
  -4   8  -2 2944.89 742.937   7
  -4   8  -2 2541.11 670.615   6
  -4   8  -3 2591.23 732.728   7
  -4   8  -3 2110.24 674.533   6
   4  -8   3 1969.77 875.845   9
  -4   8  -4 7772.54 1178.86   6
   4  -8   4 6363.45 1270.56   9
   4  -8   5-307.521 653.095   9
  -4   9   6 14706.7 1989.45   7
  -4   9   5 20161.3 2581.98   7
  -4   9   4-264.259 663.187   7
   4  -9  -4-1069.35 867.035   9
  -4   9   3 1218.96 746.323   7
   4  -9  -3-115.213 594.899   9
  -4   9   2 2463.92 811.933   7
   4  -9  -2 3957.68 1107.58   9
  -4   9   1 566.193 588.682   7
   4  -9  -1 780.896 645.019   9
   4  -9   0 137.388 608.151   9
   4  -9   1 4240.58 1104.36   9
   4  -9   2-602.812 745.951   9
  -4   9  -2 1465.45 553.657   6
   5   0 -16 45462.4 3089.88   2
   5   0 -15-423.967 532.301   2
   5   0 -14 1306.86 572.383   2
  -5   0  14 486.208 384.792   7
   5   0 -13 85796.1 3746.79   2
  -5   0  13 89835.7 3198.26   7
  -5   0  12 8339.08 899.861   7
   5   0 -12 7399.87 1052.83   2
   5   0 -11 21734.2 1705.94   2
  -5   0  11 22436.7 1402.99   7
   5   0 -10 23145.0 1713.06   2
  -5   0  10 25391.3 1725.15   1
  -5   0  10 24504.0 1375.67   7
   5   0 -10 25013.5 1394.68   5
   5   0  -9 352.239 332.239   5
  -5   0   9 659.218 323.548   7
   5   0  -9 689.302 500.935   2
  -5   0   9 13.6369 462.896   1
   5   0  -8 24548.2 1799.54   2
  -5   0   8 26374.4 1896.63   1
  -5   0   8 24862.0 1313.27   7
   5   0  -8 20634.4 1362.73   5
   5   0  -7 3870.12 413.741   8
  -5   0   7 3851.29 599.553   7
   5   0  -7 2666.22 662.612   2
  -5   0   7 2595.71 587.819   1
   5   0  -7 3599.72 654.350   5
  -5   0   6 21134.3 1056.72   7
   5   0  -6 20638.2 1310.96   2
   5   0  -6 21641.1 999.640   8
  -5   0   6 21583.1 1311.25   1
   5   0  -6 18553.0 1173.48   5
   5   0  -6 21907.7 820.086   9
   5   0  -5 29743.2 1442.58   2
  -5   0   5 27614.9 1094.89   4
  -5   0   5 29615.5 1139.97   7
  -5   0   5 27891.8 1383.95   1
   5   0  -5 29014.9 1242.46   8
   5   0  -5 30544.5 984.076   9
   5   0  -4 8502.74 713.523   8
  -5   0   4 9675.66 731.968   4
  -5   0   4 9359.40 659.936   7
  -5   0   4 9443.52 825.678   1
   5   0  -3 472.456 304.135   8
  -5   0   3 501.672 333.856   4
  -5   0   3 1078.09 284.883   7
  -5   0   2 60342.8 1643.73   7
   5   0  -2 61661.5 2163.82   8
  -5   0   2 60222.0 1888.28   4
   5   0  -1 43.5170 429.270   8
  -5   0   1 610.509 284.969   4
  -5   0   1-22.2532 197.205   7
  -5   0   1 220.344 153.211  10
   5   0   0 6678.93 1083.14   8
  -5   0   0 5979.28 550.022   7
  -5   0   0 5947.82 625.854   4
  -5   0  -1 55067.7 1973.99   4
   5   0   1 57636.5 2643.33   8
   5   0   2 26137.9 1639.64   8
  -5   0  -2 27532.1 1445.27   4
  -5   0  -3 6640.94 747.490   4
   5   0   3 8708.94 973.520   8
   5   0   4 128892. 3694.40   8
  -5   0  -4 135016. 3686.31   4
   5   0   5-468.050 405.974   8
  -5   0  -5 289.731 396.375   4
   5   0   6 6916.82 896.233   8
  -5   0  -6 7322.22 933.882   4
   5   0   7 92221.5 3191.44   8
  -5   0  -7 95230.7 3491.23   4
  -5   0  -8 25380.1 1862.24   4
  -5   0  -9 3807.37 794.308   4
  -5   0 -10 6280.75 1025.99   4
  -5   0 -11 6150.20 1104.71   4
   5   1 -16 3099.45 901.051   2
  -5   1  16 3084.13 793.678   7
   5  -1 -16 1301.88 643.934   2
   5   1 -15 35800.2 2573.19   2
   5  -1 -15 37620.9 2736.91   2
  -5   1  15 37433.3 2383.49   7
   5   1 -14 31466.3 2267.74   2
   5  -1 -14 29833.5 2342.81   2
  -5   1  14 27895.4 1945.56   7
   5   1 -13 3293.91 780.545   2
   5  -1 -13 3530.71 889.809   2
  -5   1  13 3132.53 692.143   7
   5   1 -12 6477.18 930.702   2
  -5   1  12 5706.33 806.950   7
   5  -1 -12 6556.82 1086.02   2
   5  -1 -11 44894.0 2628.88   2
   5   1 -11 45497.0 2359.93   2
  -5   1  11 48367.6 2533.83   1
  -5   1  11 42308.6 2077.33   7
  -5  -1  11 48692.2 1913.50   7
  -5   1  10 7198.35 850.163   7
  -5  -1  10 6227.29 645.138   7
   5   1 -10 6542.19 797.310   5
  -5   1  10 6897.51 1042.73   1
   5  -1 -10 6669.36 1085.28   2
   5   1 -10 6216.32 869.431   2
   5  -1  -9 10443.8 1308.50   2
  -5   1   9 12594.9 1303.27   1
   5   1  -9 12105.2 1028.06   5
  -5   1   9 11219.1 1036.44   7
  -5  -1   9 12860.4 1185.78   1
  -5  -1   9 12093.8 831.163   7
   5  -1  -9 11895.6 927.582   5
   5   1  -9 11009.2 1080.55   2
   5   1  -8 3835.21 625.724   5
  -5  -1   8 5209.02 753.335   1
   5   1  -8 4264.92 573.719   8
  -5   1   8 3535.45 595.410   7
  -5  -1   8 2945.45 426.704   7
  -5   1   8 3139.96 609.773   1
   5  -1  -8 4075.16 797.182   2
   5   1  -8 3705.54 641.010   2
   5  -1  -8 3051.31 450.609   9
   5  -1  -8 5017.40 684.351   5
   5  -1  -7 35542.4 1850.11   2
   5   1  -7 33683.6 1795.73   2
   5   1  -7 34549.6 1681.32   8
  -5  -1   7 38486.4 1940.74   1
   5  -1  -7 34822.5 1296.10   8
  -5   1   7 36842.0 1751.75   7
  -5  -1   7 35477.0 1367.36   7
   5  -1  -7 32949.3 1466.03   5
  -5   1   7 34785.3 1666.57   1
   5   1  -7 33377.3 1772.43   5
   5  -1  -7 36125.7 1408.25   9
   5   1  -6 12840.5 1183.25   2
   5   1  -6 12266.7 997.487   8
   5  -1  -6 13525.7 824.119   9
  -5  -1   6 13426.6 688.705   7
  -5   1   6 12948.3 931.511   7
  -5  -1   6 10393.1 1131.50   1
   5  -1  -6 11066.9 969.495   2
   5  -1  -6 12374.5 888.509   8
  -5   1   6 11597.2 932.513   1
   5   1  -6 13443.0 1269.85   5
   5  -1  -5 8290.07 838.753   8
   5   1  -5 7732.61 784.847   2
   5   1  -5 6377.68 312.163   9
  -5  -1   5 8018.76 479.520   7
   5   1  -5 9344.53 924.257   8
  -5   1   5 7824.40 680.554   7
   5   1  -5 8636.16 915.629   5
  -5   1   5 8331.44 537.464   4
  -5   1   5 9335.08 929.656   1
   5  -1  -5 9061.73 660.509   9
  -5  -1   5 7748.52 887.144   1
   5  -1  -4 89301.8 2813.47   8
   5   1  -4 95315.5 3126.77   8
   5   1  -4 88134.9 2393.91   2
  -5  -1   4 94096.1 2449.55   4
  -5  -1   4 93308.7 1853.47   7
  -5   1   4 95093.2 2486.51   7
  -5  -1   4 92652.2 2652.23   1
  -5   1   4 94105.3 2183.72   4
   5  -1  -3 2126.89 508.418   8
   5   1  -3 1631.55 621.080   8
  -5   1   3 1411.27 279.808   4
  -5  -1   3 1293.41 200.017   7
  -5  -1   3 1076.30 366.833   4
  -5   1   3 827.107 332.613   7
  -5  -1   3 1080.15 321.224   1
  -5   1   2 31413.8 1224.79   4
  -5  -1   2 35266.6 1769.60   4
   5  -1  -2 33472.4 1701.17   8
  -5  -1   2 32716.9 1026.38   7
  -5   1   2 33022.3 1346.16   7
  -5  -1   2 34765.0 1589.56   1
   5   1  -2 33325.4 1826.56   8
  -5  -1   2 32162.4 1181.72  10
   5   1  -1 36056.1 1859.88   8
  -5   1   1 36598.6 1421.00   7
  -5  -1   1 36669.0 1660.76   4
  -5   1   1 34890.9 865.339  10
  -5   1   1 38434.1 1434.70   4
   5  -1  -1 39198.0 1822.55   8
   5  -1   0 1024.99 446.194   8
   5   1   0 355.921 381.504   8
  -5   1   0 225.310 272.420   4
  -5  -1   0 373.082 300.029   4
  -5   1   0 842.290 309.633   7
   5  -1   1 495.064 386.950   8
   5   1   1 782.312 443.014   8
  -5   1  -1 1545.95 420.787   4
  -5  -1  -1 819.104 336.427   4
  -5   1  -1 284.339 258.659   7
   5  -1   2 37601.0 1850.84   8
   5   1   2 37327.1 2227.26   8
  -5  -1  -2 37439.4 1757.78   4
  -5   1  -2 38946.0 1704.84   4
   5  -1   3 7939.19 917.247   8
   5   1   3 8412.22 1215.85   8
  -5  -1  -3 5676.03 739.671   4
  -5   1  -3 6997.00 795.517   4
   5   1   4 23814.2 1648.00   8
  -5  -1  -4 27474.6 1617.16   4
  -5   1  -4 23340.6 1493.75   4
   5  -1   4 23510.8 1503.95   8
   5  -1   5 45789.9 2170.54   8
  -5   1  -5 52465.3 2352.23   4
   5   1   5 51904.7 2338.42   8
  -5  -1  -5 50689.5 2288.44   4
   5  -1   6 82419.4 2974.47   8
  -5   1  -6 80366.9 3079.77   4
   5   1   6 80532.9 2949.92   8
  -5  -1  -6 85443.6 3163.81   4
   5  -1   6 79394.4 2649.49   3
   5  -1   7 365.955 367.403   8
   5   1   7 114.974 383.069   8
  -5   1  -7-241.908 411.452   4
  -5  -1  -7 46.8489 428.929   4
   5  -1   7 229.644 250.201   3
  -5   1  -8 3326.98 755.358   4
  -5  -1  -8 5037.60 902.562   4
   5  -1   8 3657.05 617.769   3
  -5  -1  -9 44521.6 2603.11   4
  -5   1  -9 48326.3 2725.19   4
  -5   1 -10 7997.25 1182.95   4
  -5  -1 -10 6923.59 1104.29   4
  -5   1 -11 7425.62 1194.63   4
  -5  -1 -11 4617.19 1021.11   4
  -5   2  16 37596.8 2636.26   7
   5  -2 -15 612.572 522.626   2
   5   2 -15 107.656 513.046   2
  -5   2  15-66.3027 470.731   7
   5   2 -14 869.125 474.999   2
  -5   2  14 283.272 439.488   7
   5  -2 -14 1024.86 644.021   2
   5   2 -13 82051.4 3441.54   2
  -5   2  13 76248.4 3341.48   7
   5  -2 -13 81081.5 3874.19   2
   5   2 -12 8067.94 1058.34   2
   5  -2 -12 8229.72 1238.91   2
  -5   2  12 9821.04 1200.69   1
  -5   2  12 7767.75 1070.50   7
   5   2 -11 21046.6 1546.56   2
  -5   2  11 25006.0 1923.56   1
  -5   2  11 24822.4 1728.93   7
   5  -2 -11 21147.6 1915.67   2
   5  -2 -10 21501.3 1936.22   2
   5   2 -10 19440.6 1429.29   2
  -5   2  10 21249.6 1573.29   7
  -5   2  10 20526.6 1612.71   1
  -5   2   9 175.398 498.277   7
   5  -2  -9 211.900 511.446   2
  -5   2   9-232.845 331.375   1
   5   2  -9 626.989 474.471   5
   5   2  -9 434.615 367.882   2
   5   2  -8 20796.9 1285.80   2
   5   2  -8 18898.9 1341.71   5
  -5   2   8 20004.1 1496.55   7
  -5   2   8 20887.1 1326.34   1
  -5  -2   8 19756.8 1364.87   1
   5  -2  -8 18935.7 1043.75   5
   5  -2  -8 21851.5 1280.65   9
   5  -2  -8 20348.7 1520.06   2
   5   2  -7 3570.44 665.316   5
   5  -2  -7 3160.69 395.447   8
  -5  -2   7 2908.78 592.222   1
   5  -2  -7 2888.55 587.509   2
  -5   2   7 3382.70 640.580   7
  -5   2   7 2500.84 476.961   1
   5   2  -7 2660.59 480.422   2
   5  -2  -7 3001.83 526.299   9
   5  -2  -6 20650.5 1019.90   8
   5   2  -6 17286.6 1266.78   5
  -5  -2   6 19051.4 1225.96   1
  -5   2   6 20615.9 1274.97   7
   5   2  -6 18471.6 1079.85   2
  -5   2   6 19379.3 1351.75   1
   5  -2  -6 18873.6 1122.90   9
   5  -2  -6 17972.6 1270.68   2
   5   2  -5 24514.5 1235.72   8
   5  -2  -5 26319.3 1249.78   8
   5   2  -5 25767.8 1248.54   2
   5  -2  -5 25490.5 1301.69   9
  -5   2   5 24847.9 887.321   4
  -5  -2   5 25161.3 1347.89   1
   5   2  -5 24464.8 1560.96   5
  -5   2   5 26026.5 1365.14   7
   5  -2  -4 7056.18 684.108   8
  -5  -2   4 8368.64 783.984   1
  -5   2   4 8555.66 517.946   4
  -5  -2   4 7775.22 773.399   4
   5   2  -4 8816.01 801.178   8
  -5   2   4 9962.04 873.722   7
   5   2  -4 7915.45 819.562   2
   5   2  -4 9038.10 1127.52   5
   5  -2  -4 8494.09 782.059   9
   5  -2  -3 1107.69 389.550   8
   5   2  -3 489.899 300.659   8
  -5   2   3 836.440 250.571   4
  -5  -2   3 714.718 345.581  10
   5   2  -3 281.899 181.486   2
  -5  -2   3 800.407 373.276   4
  -5   2   3 565.924 401.849   7
  -5  -2   3 295.133 287.295   1
   5   2  -3 499.343 454.725   5
   5  -2  -2 53578.1 2015.00   8
  -5   2   2 50931.7 1590.20   4
  -5  -2   2 51538.3 1663.12  10
  -5  -2   2 51616.7 2069.49   4
  -5   2   2 54710.5 1994.59   7
   5   2  -2 50799.5 2024.93   8
  -5  -2   2 48365.2 2025.45   1
  -5  -2   1 622.426 280.546   1
   5   2  -1 351.563 396.952   8
  -5   2   1 245.351 266.296   4
  -5  -2   1-184.040 471.021   4
  -5   2   1-56.0495 312.648   7
   5  -2  -1 437.609 384.486   8
   5  -2   0 4836.53 698.646   8
   5   2   0 4648.68 826.085   8
  -5   2   0 4087.20 550.615   4
  -5  -2   0 4522.46 808.717   4
  -5   2   0 4890.57 627.550   7
  -5  -2   0 4825.80 500.094   1
  -5  -2  -1 48963.3 2235.18   4
   5   2   1 51342.0 2873.83   8
  -5   2  -1 46919.4 1822.66   4
   5  -2   1 45426.5 2020.69   8
  -5   2  -1 48268.1 1884.05   7
  -5   2  -2 21617.1 1338.11   4
   5  -2   2 22883.0 1455.56   8
  -5  -2  -2 23569.4 1543.99   4
   5   2   2 22122.9 1781.61   8
  -5   2  -2 23777.6 1347.18   7
  -5   2  -3 6417.98 820.019   4
   5  -2   3 7197.82 878.783   8
   5   2   3 7964.70 1146.19   8
  -5  -2  -3 6042.57 827.045   4
   5  -2   4 110613. 3443.68   8
  -5   2  -4 113880. 3471.16   4
   5   2   4 118157. 4832.45   8
   5  -2   4 112810. 3191.04   3
  -5  -2  -4 125898. 3798.99   4
   5  -2   5 144.005 428.665   8
   5   2   5-566.860 567.257   8
  -5  -2  -5 73.7568 417.740   4
   5  -2   5-287.767 301.274   3
  -5   2  -5 285.399 418.671   4
   5  -2   6 6762.61 911.587   8
   5   2   6 5825.77 861.461   8
  -5   2  -6 6747.68 932.498   4
  -5  -2  -6 6103.71 914.953   4
   5  -2   6 7173.65 860.890   3
  -5   2  -7 81651.7 3343.72   4
  -5  -2  -7 92110.4 3573.93   4
   5  -2   7 84760.0 3124.08   8
   5  -2   7 80738.8 2971.77   3
  -5   2  -8 26743.4 1935.26   4
  -5  -2  -8 25613.5 1981.72   4
   5  -2   8 23912.4 1630.72   3
  -5   2  -9 2339.90 744.647   4
  -5  -2  -9 3800.21 915.728   4
   5  -2   9 3882.46 688.417   3
  -5   2 -10 5642.19 1068.74   4
  -5  -2 -10 6900.67 1172.26   4
  -5   2 -11 7188.60 1227.79   4
   5   3 -15 29263.1 2257.71   2
   5  -3 -15 30848.1 2585.93   2
  -5   3  15 32566.5 2567.77   7
   5  -3 -14 27248.1 2391.85   2
   5   3 -14 21924.1 1853.44   2
  -5   3  14 21191.9 1964.54   7
   5   3 -13 4932.36 878.238   2
   5  -3 -13 3601.64 954.459   2
  -5   3  13 3866.91 907.296   7
   5   3 -12 5639.09 883.534   2
  -5   3  12 4100.53 889.387   7
   5  -3 -12 4649.35 1030.45   2
   5  -3 -11 33502.7 2484.14   2
  -5   3  11 38083.1 2291.86   1
   5   3 -11 32541.7 1883.51   2
  -5   3  11 34939.4 2286.35   7
   5   3 -10 4714.64 697.257   2
  -5   3  10 5071.00 799.003   1
   5  -3 -10 4128.21 862.488   2
   5  -3  -9 8576.29 1129.62   2
   5   3  -9 8938.33 878.099   2
   5  -3  -9 7501.21 890.289   9
  -5   3   9 6690.46 1042.40   7
  -5   3   9 7648.70 864.375   1
   5   3  -8 2395.42 482.138   2
   5   3  -8 2081.46 535.768   5
  -5   3   8 2697.21 509.415   1
  -5   3   8 2206.66 640.134   7
   5  -3  -8 3136.57 653.034   2
   5  -3  -8 1740.81 495.241   9
   5   3  -7 25568.3 1267.02   2
  -5   3   7 23434.1 1576.58   7
   5  -3  -7 26093.5 1185.94   8
  -5   3   7 24641.4 1500.03   1
   5  -3  -7 27680.9 1575.97   9
   5   3  -7 26061.7 1597.00   5
   5  -3  -7 23173.9 1552.85   2
  -5   3   6 7073.13 921.070   1
   5   3  -6 8919.65 670.136   2
  -5   3   6 6827.07 842.150   7
   5  -3  -6 8525.92 981.092   2
   5  -3  -6 8545.07 712.473   8
   5   3  -6 8872.38 954.229   5
   5  -3  -6 9478.22 935.068   9
   5   3  -5 4868.40 695.366   5
   5   3  -5 5650.04 506.327   2
   5  -3  -5 6287.75 655.442   8
  -5  -3   5 4736.49 610.595   1
  -5   3   5 6815.29 803.387   7
   5  -3  -5 5947.66 750.239   9
  -5  -3   5 5070.52 743.778  10
   5  -3  -4 67443.8 2211.67   8
   5   3  -4 64368.3 1596.38   2
  -5   3   4 68945.1 2511.19   7
   5   3  -4 64008.3 2436.68   5
  -5  -3   4 66796.2 2074.51   1
   5  -3  -4 64835.1 2399.20   9
  -5   3   4 64392.2 1571.90   4
  -5  -3   4 61725.3 2183.06  10
   5  -3  -3 1856.10 598.620   9
  -5   3   3 1223.09 289.390   4
  -5  -3   3 1323.06 401.404  10
   5  -3  -3 668.199 397.159   8
  -5  -3   3 1255.25 330.588   1
  -5   3   3 1061.73 545.304   7
  -5  -3   3 1078.91 505.764   4
   5   3  -3 1289.53 208.313   2
   5   3  -3 1087.63 421.679   5
   5  -3  -2 24622.2 1399.22   8
  -5   3   2 22515.5 1077.60   4
   5   3  -2 24089.3 1493.01   5
  -5  -3   2 22250.6 1444.82   4
  -5  -3   2 24020.8 1058.48   1
  -5   3   2 23510.2 1460.42   7
  -5   3   1 24379.9 1209.30   4
  -5  -3   1 24480.3 994.666   1
   5   3  -1 23337.9 1420.78   8
  -5  -3   1 25335.1 1567.03   4
  -5   3   1 26505.7 1469.90   7
   5  -3  -1 26757.4 1505.06   8
   5   3  -1 24887.2 1578.74   5
  -5  -3   0 148.047 155.709   1
  -5   3   0 298.880 331.651   4
   5   3   0 243.146 343.177   8
   5  -3   0 676.284 463.281   8
  -5   3   0 602.599 348.447   7
  -5  -3   0-450.614 396.764   4
   5   3   0 1069.95 522.855   5
   5   3   1 286.439 378.035   8
  -5   3  -1 984.730 407.920   4
  -5   3  -1 410.446 366.675   7
  -5  -3  -1 427.860 648.946   4
   5  -3   1 1254.79 505.708   8
   5  -3   2 25760.9 1626.31   8
  -5   3  -2 27570.0 1548.72   4
   5   3   2 30040.2 1996.41   8
  -5  -3  -2 32537.9 2320.16   4
  -5   3  -2 26709.6 1526.88   7
   5  -3   3 5282.90 801.835   8
  -5   3  -3 6447.39 820.144   4
  -5   3  -3 5589.44 759.572   7
  -5  -3  -3 6998.41 1127.94   4
   5   3   3 6667.01 1282.61   8
  -5   3  -4 19225.8 1438.22   4
   5  -3   4 17707.6 1387.50   8
   5   3   4 19690.1 1941.01   8
  -5  -3  -4 18023.0 1705.02   4
   5  -3   4 16915.8 1246.85   3
   5  -3   5 34554.4 1984.41   8
  -5  -3  -5 41688.7 2552.56   4
  -5   3  -5 36484.0 2065.66   4
   5  -3   5 37384.7 1942.26   3
   5   3   5 43445.7 3001.85   8
   5  -3   6 58771.4 2632.74   8
  -5   3  -6 65695.7 2915.78   4
   5   3   6 68278.1 3371.29   8
  -5  -3  -6 66939.2 3335.86   4
   5  -3   6 57578.8 2528.28   3
   5  -3   7 631.037 493.248   8
  -5   3  -7 311.643 373.800   4
   5  -3   7 107.219 335.710   3
  -5  -3  -7 501.294 551.352   4
  -5   3  -8 4884.18 959.317   4
  -5  -3  -8 5020.59 1079.62   4
   5  -3   8 2904.38 638.839   3
  -5  -3  -9 36500.1 2909.31   4
  -5   3  -9 35941.5 2483.01   4
   5  -3   9 34188.8 2150.10   3
  -5   3 -10 6014.37 1107.12   4
   5  -3  10 5915.16 970.999   3
   5  -3  11 4338.97 820.629   3
   5   4 -15-196.225 374.110   2
   5  -4 -15 262.588 602.173   2
   5  -4 -14 613.149 604.403   2
   5   4 -14 364.527 366.686   2
  -5   4  14 719.422 708.585   7
   5  -4 -13 58032.3 3417.20   2
   5   4 -13 54005.8 2707.69   2
  -5   4  13 50610.8 3239.07   7
   5   4 -12 6665.65 931.581   2
  -5   4  12 6680.18 1249.34   7
   5  -4 -12 5603.72 1079.72   2
   5  -4 -11 13141.9 1639.30   2
   5   4 -11 15283.9 1270.93   2
  -5   4  11 15398.2 1716.73   7
   5   4 -10 11706.7 1039.80   2
   5  -4 -10 13518.7 1503.38   2
  -5   4  10 12214.5 1451.23   7
   5   4  -9 258.016 241.493   2
  -5   4   9-295.020 335.704   1
  -5   4   9-772.576 668.602   7
   5  -4  -9-270.628 528.489   2
   5  -4  -9 592.966 401.183   9
   5   4  -8 13567.4 964.047   2
  -5   4   8 12316.3 1347.80   7
  -5   4   8 13120.7 1104.70   1
   5  -4  -8 11776.3 1180.63   9
   5  -4  -8 13341.0 1268.54   2
   5   4  -7 2392.46 633.172   5
   5  -4  -7 2416.74 587.101   2
  -5   4   7 2222.51 631.987   7
  -5   4   7 920.844 464.607   1
  -5  -4   7 2486.00 713.634  10
   5  -4  -7 1443.83 550.037   9
  -5   4   6 13247.9 1200.30   7
  -5  -4   6 10582.0 1062.04  10
   5  -4  -6 11536.7 1199.23   9
   5   4  -6 11911.6 1145.98   5
   5  -4  -6 12019.5 1154.97   2
   5  -4  -5 17717.4 1173.65   8
   5  -4  -5 15204.5 1292.99   9
  -5   4   5 18103.7 1376.87   7
  -5  -4   5 17137.3 1252.90  10
   5   4  -5 16728.3 1274.66   5
   5   4  -4 5119.01 725.613   5
   5  -4  -4 4341.51 636.945   8
  -5  -4   4 5007.13 682.258  10
  -5   4   4 5048.92 822.798   7
   5  -4  -4 5299.68 841.386   9
   5   4  -3 1021.56 413.824   5
   5  -4  -3 1345.02 722.929   9
  -5   4   3 408.885 258.897   4
   5  -4  -3 148.429 355.332   8
  -5   4   3 755.185 637.153   7
  -5   4   2 32764.5 1879.03   7
   5  -4  -2 30079.9 1840.01   9
   5  -4  -2 29927.8 1636.73   8
   5   4  -2 31783.7 1653.77   5
   5  -4  -1-66.6430 388.354   8
  -5   4   1-191.863 398.306   7
  -5  -4   1-29.6560 464.223   4
   5   4  -1-216.203 284.741   5
   5  -4   0 2315.90 587.370   8
   5   4   0 2488.10 499.480   5
  -5   4   0 2165.19 600.376   7
  -5  -4   0 3079.53 696.433   4
   5  -4   1 28310.3 1709.72   8
   5   4   1 28468.6 1732.44   8
  -5  -4  -1 29573.8 1952.17   4
  -5   4  -1 28022.8 1625.98   7
   5   4   1 28965.0 1486.85   5
   5  -4   2 14885.5 1295.04   8
  -5  -4  -2 15612.3 1492.54   4
  -5   4  -2 14448.1 1213.50   7
   5   4   2 17127.4 1128.33   5
   5   4   2 14752.9 1343.43   8
   5  -4   3 5299.40 844.881   8
   5   4   3 4341.74 866.786   8
  -5   4  -3 5433.99 818.518   7
  -5  -4  -3 4356.86 903.656   4
  -5   4  -4 75299.4 3022.24   4
   5  -4   4 73661.8 2983.27   8
   5   4   4 83307.2 4033.63   8
  -5  -4  -4 83269.4 3889.40   4
   5  -4   4 76840.8 2899.03   3
   5  -4   5-686.092 505.147   8
   5  -4   5 342.160 322.541   3
  -5   4  -5 329.561 404.269   4
   5   4   5 1349.72 891.152   8
  -5  -4  -5 33.0610 564.373   4
   5  -4   6 4469.07 841.826   8
   5   4   6 7005.85 1486.63   8
  -5   4  -6 6107.65 992.223   4
  -5  -4  -6 4576.86 1297.08   4
   5  -4   6 4754.58 786.771   3
   5  -4   7 57195.4 2788.58   8
  -5   4  -7 61517.1 3079.37   4
  -5  -4  -7 57299.7 4128.82   4
   5  -4   7 57029.7 2758.59   3
  -5   4  -8 17771.7 1741.11   4
   5  -4   8 17042.4 1542.65   8
   5  -4   8 16389.9 1513.62   3
  -5   4  -9 2139.57 765.034   4
   5  -4   9 1936.34 620.736   3
   5  -4  10 4651.37 903.895   3
   5  -5 -14 17056.7 1938.76   2
  -5   5  13 2002.83 920.517   7
   5  -5 -13 3198.57 1059.09   2
  -5   5  12 1982.37 777.675   7
   5  -5 -12 3453.20 871.333   2
   5  -5 -11 23755.4 2181.59   2
  -5   5  11 19472.8 1921.14   7
  -5  -5  11 19345.0 1995.18  10
  -5   5  10 3886.22 924.533   7
   5  -5 -10 4334.16 973.393   2
  -5  -5  10 4309.32 938.195  10
  -5  -5   9 5189.48 963.760  10
   5  -5  -9 4418.17 882.445   9
  -5   5   9 5140.46 961.194   7
   5  -5  -9 4355.50 859.473   2
  -5  -5   8 653.295 574.258  10
  -5   5   8 232.749 513.302   7
   5  -5  -8 1021.86 532.788   2
   5  -5  -8 759.608 515.349   9
   5  -5  -7 14790.4 1353.71   2
  -5   5   7 14041.2 1373.17   7
  -5   5   7 13466.2 1421.51   1
  -5  -5   7 12927.3 1210.50  10
   5  -5  -7 10342.5 1214.99   9
   5  -5  -6 4763.48 781.289   2
  -5   5   6 4505.76 853.119   7
  -5  -5   6 4184.05 758.832  10
   5  -5  -6 4600.83 870.249   9
   5   5  -5 2044.74 563.182   5
   5  -5  -5 1706.36 660.027   9
  -5   5   5 1721.47 555.875   7
  -5  -5   5 1958.79 565.831  10
  -5   5   4 34882.9 2170.58   7
   5  -5  -4 32976.9 2038.31   9
   5   5  -4 34583.2 1868.97   5
   5   5  -3 1356.05 489.344   5
   5  -5  -3 1321.09 502.179   8
   5  -5  -3 403.935 530.054   9
  -5   5   3 891.034 705.198   7
   5  -5  -2 11237.9 1111.74   8
  -5   5   2 12223.9 1247.04   7
   5   5  -2 13859.4 1116.55   5
   5  -5  -2 14523.3 1477.00   9
   5  -5  -1 13497.2 1211.26   8
   5   5  -1 13586.5 1101.97   5
  -5   5   1 13983.1 1298.12   7
   5  -5  -1 15163.4 1554.07   9
   5  -5   0-515.809 561.729   9
   5  -5   0-197.465 459.346   8
   5   5   0 5.12476 239.734   5
  -5   5   0-205.643 366.344   7
   5   5   1 245.270 257.130   5
   5  -5   1 468.431 515.444   8
  -5   5  -1 967.056 487.556   7
  -5  -5  -1-419.946 648.611   4
   5  -5   2 17654.7 1463.07   8
  -5  -5  -2 17905.9 1971.49   4
  -5   5  -2 14725.3 1309.52   7
   5   5   2 14981.6 1386.46   8
   5  -5   3 4403.78 839.919   8
   5   5   3 3111.15 754.955   8
  -5   5  -3 2488.22 627.702   7
  -5  -5  -3 2165.48 883.424   4
  -5   5  -3 3447.13 726.753   6
   5  -5   4 11283.8 1229.23   8
   5   5   4 10927.5 1369.41   8
  -5   5  -4 10973.2 1178.31   7
  -5  -5  -4 13548.9 2003.24   4
  -5   5  -4 13096.5 1272.37   6
   5  -5   5 25399.4 1888.05   8
   5   5   5 24840.4 2389.25   8
  -5  -5  -5 26632.0 2596.55   4
  -5   5  -5 23192.8 1741.11   6
   5  -5   5 26590.6 1837.90   3
   5  -5   6 40437.4 2421.61   8
  -5   5  -6 39515.0 2463.21   4
  -5  -5  -6 42921.9 3246.37   4
   5  -5   6 44047.8 2438.54   3
   5  -5   7 723.666 580.836   8
   5  -5   7-106.922 372.884   3
  -5   5  -7 202.269 523.580   4
   5  -5   8 2182.29 700.150   8
  -5   5  -8 2831.29 806.583   4
   5  -5   8 2888.34 760.395   3
  -5  -6  13 29224.6 2658.31  10
  -5  -6  12 2520.41 854.147  10
  -5   6  12 4366.98 985.242   7
   5  -6 -12 3472.68 855.318   2
  -5   6  11 7076.24 1246.97   7
   5  -6 -11 7669.99 1265.95   2
  -5  -6  11 6179.63 1070.41  10
  -5   6  10 5931.34 1129.39   7
   5  -6 -10 8560.54 1278.48   2
  -5  -6  10 6231.94 1014.30  10
   5  -6 -10 6207.47 1079.55   9
  -5  -6   9 57.4007 514.939  10
  -5   6   9-359.672 565.212   7
   5  -6  -9-107.305 508.785   2
   5  -6  -9-766.360 587.856   9
  -5   6   8 8316.56 1173.42   7
   5  -6  -8 7915.00 1084.25   2
  -5  -6   8 6725.62 987.685  10
   5  -6  -8 6567.68 1104.66   9
   5  -6  -7 1764.92 618.698   2
  -5   6   7-86.5201 450.792   7
  -5  -6   7 277.664 441.965  10
   5  -6  -7 439.381 532.190   9
   5  -6  -6 6498.11 951.202   2
  -5   6   6 5653.86 966.576   7
   5  -6  -6 6846.03 1104.65   9
  -5   6   5 8895.20 1181.16   7
   5  -6  -5 7958.03 1181.99   9
   5  -6  -4 2146.85 708.484   9
  -5   6   4 4083.13 931.368   7
   5  -6  -3-115.309 622.173   9
  -5   6   3 39.1051 539.887   7
  -5   6   2 14202.6 1456.88   7
   5  -6  -2 13336.8 1488.28   9
   5   6  -2 15400.4 1252.60   5
   5  -6  -1 5.21770 612.608   9
   5   6  -1 154.017 281.972   5
  -5   6   1-874.446 603.035   7
   5   6   0 414.358 307.602   5
  -5   6   0 1217.00 545.104   7
  -5   6  -1 12594.2 1272.13   7
   5  -6   1 13785.4 1678.79   9
   5  -6   2 7342.62 1411.32   9
  -5   6  -2 7404.82 1017.97   7
   5  -6   2 6891.79 1044.00   8
  -5   6  -2 8841.15 1082.97   6
   5  -6   3 3812.61 846.552   8
   5   6   3 3560.00 794.710   8
  -5   6  -3 4137.62 800.774   7
  -5   6  -3 4117.46 799.022   6
   5   6   4 38306.4 2548.93   8
  -5  -6  -4 47510.3 2795.40   4
  -5   6  -4 39348.7 2309.78   6
  -5   6  -4 41052.0 2372.11   7
   5   6   5 195.872 600.364   8
  -5  -6  -5-206.356 547.780   4
  -5   6  -5-423.525 425.880   6
  -5   6  -6 2966.88 726.926   6
   5  -6   6 3921.86 815.595   3
  -5   6  -7 35797.1 2561.70   4
   5  -6   7 37654.8 2481.81   3
  -5  -7  11 11924.8 1428.57  10
  -5  -7  10 2674.77 748.888  10
  -5   7  10 2227.61 839.484   7
  -5   7   9 1419.20 697.642   7
   5  -7  -9 2800.72 828.893   9
   5  -7  -8 337.267 512.900   9
  -5   7   8 871.569 589.263   7
  -5   7   7 6005.66 1097.61   7
   5  -7  -7 6367.82 1105.61   9
  -5   7   6 1525.52 584.223   7
   5  -7  -6 1086.57 607.360   9
  -5   7   5 432.605 519.375   7
   5  -7  -5 678.754 489.560   2
   5  -7  -5 242.598 523.278   9
  -5   7   4 17542.7 2024.65   7
   5  -7  -4 16251.3 1772.27   9
   5  -7  -3 1622.79 752.295   9
  -5   7   3 1837.39 766.607   7
   5  -7  -2 3837.61 961.907   9
  -5   7   2 5908.25 1078.93   7
  -5   7   1 6337.14 1041.53   7
   5  -7  -1 4357.11 1079.01   9
   5  -7   0 814.141 741.235   9
  -5   7   0 216.699 492.269   7
   5  -7   1-242.587 729.756   9
  -5   7  -1 470.636 500.286   7
   5  -7   2 8294.67 1602.77   9
  -5   7  -2 7445.91 1102.31   7
  -5   7  -2 7609.93 1039.73   6
   5  -7   3 3317.68 1406.40   9
  -5   7  -3 1870.63 563.238   7
  -5   7  -3 1900.66 623.647   6
   5  -7   4 8010.90 1765.30   9
   5   7   4 5035.36 1002.46   8
  -5   7  -4 6064.89 978.302   7
  -5   7  -4 7674.14 1118.21   6
   5   7   5 14378.3 1797.64   8
  -5   7  -5 14990.1 1571.54   6
   5  -7   5 13729.4 2088.84   9
   5  -7   6 20529.5 2500.21   9
  -5   8   8 2999.47 961.862   7
   5  -8  -8 2502.90 842.024   9
  -5   8   7 1464.70 832.412   7
   5  -8  -7 143.223 574.369   9
   5  -8  -6 4301.89 1098.12   9
  -5   8   6 3168.50 1026.53   7
  -5   8   5 3662.42 1035.62   7
   5  -8  -5 3060.85 956.767   9
  -5   8   4 2037.69 974.464   7
   5  -8  -4 1890.43 882.276   9
   5  -8  -3-524.442 710.754   9
  -5   8   3 74.5088 594.730   7
   5  -8  -2 7695.82 1425.58   9
  -5   8   2 8333.60 1293.16   7
   5  -8  -1-1322.65 995.115   9
  -5   8   1-328.557 617.358   7
  -5   8   0 333.273 553.623   7
   5  -8   0 440.606 750.763   9
   5  -8   1 5761.59 1281.79   9
  -5   8  -1 6200.08 1068.26   7
   5  -8   2 2218.30 975.024   9
  -5   8  -2 3304.73 952.827   7
   5  -8   3 673.899 719.127   9
  -5   8  -3 1517.96 682.169   7
   5  -8   4 17963.7 2243.31   9
   5   8   4 18873.1 1997.06   8
  -5   8  -4 16388.2 1697.43   7
  -5   9   4 4846.38 1336.42   7
  -5   9   3-1077.28 846.697   7
  -5   9   2 2623.11 872.666   7
  -5   9   1 3248.42 926.546   7
  -5   9   0-456.962 474.467   7
  -5   9  -1 832.452 507.454   7
   6   0 -16-970.683 716.044   2
   6   0 -15 1045.48 715.962   2
   6   0 -14 488.900 676.491   2
   6   0 -13 9950.88 1434.91   2
  -6   0  12 4319.87 935.982   1
  -6   0  12 5204.18 799.924   7
   6   0 -12 5482.72 1125.57   2
   6   0 -11 498.623 399.305   5
   6   0 -11 387.139 570.575   2
  -6   0  11 312.327 397.314   7
  -6   0  11-114.056 572.839   1
   6   0 -10 43794.1 2702.73   2
  -6   0  10 47877.4 2724.88   1
  -6   0  10 49585.8 2163.76   7
   6   0 -10 46159.9 2323.28   5
   6   0  -9 3780.71 708.818   5
  -6   0   9 4661.28 817.240   1
  -6   0   9 5152.42 704.956   7
   6   0  -9 4534.49 857.771   2
   6   0  -8 378.530 227.467   8
  -6   0   8 291.069 366.905   1
   6   0  -8 774.557 368.113   5
  -6   0   8 510.539 312.384   7
   6   0  -8 397.763 444.245   2
   6   0  -7 19667.0 1346.20   2
   6   0  -7 20103.4 1056.78   8
  -6   0   7 22018.6 1111.59   7
   6   0  -7 19204.1 1255.52   5
  -6   0   7 22011.0 1394.47   1
   6   0  -6 47417.1 1707.37   8
  -6   0   6 45382.7 1499.81   4
  -6   0   6 48358.7 1578.22   7
   6   0  -6 41765.1 1873.06   2
  -6   0   6 42036.2 1861.06   1
   6   0  -6 47331.4 1316.71   9
   6   0  -5 14625.6 974.174   8
  -6   0   5 13704.3 873.382   4
  -6   0   5 13713.6 843.653   7
  -6   0   5 14202.4 1060.90   1
   6   0  -5 13583.2 1059.47   2
   6   0  -4 38839.6 1681.38   8
  -6   0   4 38869.4 1830.47   4
  -6   0   4 38671.8 1553.74   7
  -6   0   4 38523.7 1946.20   1
   6   0  -3 40400.0 1787.45   8
  -6   0   3 39899.1 1700.52   4
  -6   0   3 37900.3 1426.53   7
   6   0  -2 140269. 3714.24   8
  -6   0   2 134704. 2636.00  10
  -6   0   2 142361. 3003.35   7
  -6   0   2 133219. 3298.45   4
   6   0  -1 162583. 4303.84   8
  -6   0   1 152363. 3633.67   4
  -6   0   1 164790. 3400.49   7
  -6   0   0 25947.1 1398.93   4
   6   0   0 26856.4 1909.12   8
   6   0   1 62658.4 3325.78   8
  -6   0  -1 61195.9 2265.65   4
   6   0   2 50443.3 2642.21   8
  -6   0  -2 51069.9 2154.19   4
   6   0   3 85679.8 3294.10   8
  -6   0  -3 88663.6 3028.15   4
   6   0   4-433.738 510.026   8
  -6   0  -4 459.378 392.771   4
   6   0   5 7184.33 979.682   8
  -6   0  -5 7796.01 987.331   4
   6   0   6 9334.27 1101.30   8
  -6   0  -6 10428.9 1161.78   4
   6   0   7 2904.23 724.716   8
  -6   0  -7 1355.01 562.197   4
  -6   0  -8 15989.7 1568.35   4
  -6   0  -9 2651.29 783.821   4
  -6   0 -10 11064.7 1438.36   4
   6   1 -16 8844.67 1574.38   2
   6  -1 -15 1001.87 699.650   2
   6   1 -15 617.096 466.159   2
   6   1 -14 3898.87 985.591   2
  -6   1  14 4861.92 895.552   7
   6  -1 -14 5191.33 1195.47   2
   6   1 -13 1074.88 650.763   2
  -6   1  13-35.2042 365.290   7
   6  -1 -13 283.697 592.929   2
   6  -1 -12 15336.8 1813.36   2
   6   1 -12 12999.5 1468.58   2
  -6   1  12 16079.4 1726.68   1
  -6   1  12 14517.4 1349.21   7
   6   1 -11-96.0084 353.864   5
  -6  -1  11 92.1857 437.985   1
  -6   1  11 1837.72 560.803   7
   6  -1 -11 811.696 473.036   2
  -6   1  11 468.355 563.738   1
   6   1 -11 127.682 404.163   2
   6   1 -10 98.9963 431.525   5
  -6  -1  10 235.462 506.170   1
  -6   1  10 580.400 447.691   1
   6   1 -10-8.35571 539.130   2
  -6   1  10 463.179 482.821   7
   6  -1 -10 533.343 474.985   2
   6  -1 -10 1608.80 471.348   5
   6   1  -9 2543.74 673.570   5
  -6  -1   9 2367.11 759.674   1
  -6   1   9 1875.77 551.404   7
   6  -1  -9 2026.01 645.872   2
   6   1  -9 1608.98 639.703   2
  -6   1   9 1769.73 499.681   1
   6  -1  -9 1689.29 454.148   5
   6   1  -8 4950.69 895.429   5
   6   1  -8 6340.00 655.992   8
  -6  -1   8 4473.55 508.759   7
  -6   1   8 4143.40 649.165   1
  -6  -1   8 3641.14 899.830   1
  -6   1   8 5322.53 700.285   7
   6  -1  -8 5174.65 775.703   2
   6   1  -8 5306.86 919.401   2
   6  -1  -8 4798.91 527.698   9
   6  -1  -8 3735.34 572.887   5
   6  -1  -7 10215.6 1005.11   2
   6   1  -7 10814.3 1068.59   2
  -6  -1   7 11943.3 1165.31   1
   6  -1  -7 12363.9 939.344   8
   6   1  -7 10545.0 928.453   8
  -6  -1   7 12235.8 700.128   7
  -6   1   7 12079.7 926.960   7
  -6   1   7 10908.6 976.504   1
   6   1  -7 10919.7 1080.18   5
   6  -1  -7 12267.0 787.495   9
   6  -1  -6 694.869 295.300   9
   6  -1  -6 261.843 370.405   8
   6   1  -6 8.72577 434.046   8
   6  -1  -6 255.514 330.427   2
  -6   1   6 88.6989 148.304   4
  -6  -1   6 162.528 175.653   7
  -6   1   6-155.324 290.399   7
   6   1  -6 367.559 305.179   2
  -6  -1   6 224.591 367.995   1
  -6   1   6 370.573 366.732   1
   6   1  -6 546.552 329.404   5
   6  -1  -5 2284.69 554.726   8
   6   1  -5 2919.72 611.230   8
  -6  -1   5 3758.01 576.383   1
  -6   1   5 3905.56 560.617   4
  -6  -1   5 3816.94 412.629   7
   6   1  -5 2751.50 487.077   2
  -6  -1   5 3376.60 501.437   4
  -6   1   5 3033.76 482.214   7
  -6   1   5 3978.98 760.819   1
   6  -1  -5 4761.97 572.656   9
   6  -1  -4 156288. 4171.65   8
   6   1  -4 155393. 4055.39   8
  -6  -1   4 156096. 3672.37   4
  -6   1   4 161183. 3351.21   4
  -6  -1   4 163211. 2895.51   7
  -6   1   4 160216. 3707.40   7
  -6  -1   4 153757. 3620.31   1
   6  -1  -3 33961.4 2051.09   8
   6   1  -3 34736.8 1797.03   8
  -6  -1   3 38333.4 1931.18   4
  -6  -1   3 34125.5 1138.69   7
  -6   1   3 34936.7 1589.87   7
  -6   1   3 34088.4 1388.38   4
  -6  -1   3 34377.8 1576.90   1
  -6  -1   3 34892.7 1384.01  10
   6  -1  -2 76478.6 3305.29   8
   6   1  -2 77201.4 2757.53   8
  -6   1   2 71809.4 2172.27   4
  -6  -1   2 77070.2 2813.10   4
  -6   1   2 78973.4 2342.55   7
  -6  -1   2 78500.5 2033.08  10
  -6  -1   2 77284.9 2811.60   1
   6  -1  -1 126477. 4162.18   8
  -6  -1   1 121443. 3452.29   4
  -6   1   1 120650. 3040.95   4
  -6   1   1 127284. 3091.90   7
   6   1  -1 124352. 3631.08   8
   6  -1   0 53301.9 2522.45   8
  -6   1   0 53231.4 2002.25   4
   6   1   0 50910.2 2305.78   8
  -6   1   0 52299.6 1932.88   7
  -6  -1   0 50447.4 2145.74   4
  -6   1  -1 200360. 4523.29   4
   6   1   1 205962. 5230.54   8
  -6  -1  -1 210072. 4818.40   4
   6  -1   1 208062. 5204.20   8
  -6   1  -1 215713. 4506.07   7
   6   1   2 743.574 603.109   8
  -6   1  -2-10.4251 394.908   4
  -6  -1  -2 49.5928 359.916   4
   6  -1   2 85.8585 514.942   8
   6  -1   3 270.109 493.098   8
   6   1   3 1485.98 809.901   8
  -6   1  -3-81.8564 322.838   4
  -6  -1  -3 874.488 429.784   4
   6  -1   4 43662.0 2274.08   8
  -6   1  -4 48280.9 2271.81   4
   6   1   4 48604.5 2636.46   8
  -6  -1  -4 47444.8 2320.88   4
   6  -1   5 5144.03 825.516   8
   6   1   5 6426.85 976.341   8
  -6   1  -5 5949.39 884.247   4
  -6  -1  -5 5906.41 900.291   4
   6   1   6 10003.8 1144.41   8
   6  -1   6 7226.63 1024.56   8
  -6  -1  -6 6985.94 1001.95   4
  -6   1  -6 10017.4 1154.15   4
   6  -1   7 6969.48 972.695   8
  -6   1  -7 4613.17 800.093   4
  -6  -1  -7 5379.49 909.140   4
  -6   1  -8 1208.29 556.475   4
  -6  -1  -8 1968.65 689.195   4
  -6   1  -9 842.750 497.541   4
  -6  -1  -9 1117.25 614.603   4
  -6   1 -10 7576.99 1209.88   4
  -6  -1 -10 7618.59 1263.56   4
  -6   2  16 742.999 670.974   7
   6   2 -15 999.725 636.552   2
  -6   2  15 2023.11 772.706   7
   6  -2 -15 1586.29 1005.13   2
   6   2 -14 22.8216 458.506   2
  -6   2  14 421.233 570.772   7
   6  -2 -14-535.405 691.356   2
   6   2 -13 6527.52 1050.66   2
  -6   2  13 7344.61 1153.40   7
  -6   2  13 7735.88 1217.26   1
   6  -2 -13 6857.06 1268.35   2
  -6   2  12 2939.69 724.557   1
   6   2 -12 4943.33 889.680   2
  -6   2  12 3835.23 887.021   7
   6  -2 -12 4207.03 1032.46   2
  -6   2  11-8.51432 428.935   1
  -6   2  11 237.005 439.044   7
   6  -2 -11 428.220 525.748   2
   6   2 -11 451.913 477.007   2
  -6   2  10 38698.6 2025.78   1
   6  -2 -10 38308.3 2291.29   2
   6   2 -10 39903.9 2173.88   2
  -6   2  10 38848.4 2265.53   7
   6   2 -10 42520.2 2292.42   5
   6   2  -9 4098.61 766.313   5
   6  -2  -9 3302.36 530.718   9
  -6   2   9 4769.10 714.493   1
  -6   2   9 3220.39 683.838   7
   6  -2  -9 3780.16 709.816   2
  -6  -2   9 2656.25 635.735   1
   6   2  -9 4303.14 738.627   2
   6   2  -8 710.761 586.151   5
  -6   2   8 735.106 366.996   1
   6   2  -8 112.757 345.249   8
   6  -2  -8 1601.82 550.777   2
  -6   2   8-257.277 348.950   7
  -6  -2   8 521.204 457.537   1
   6   2  -8 427.925 391.286   2
   6  -2  -8 856.882 315.525   9
   6  -2  -7 16831.5 1319.27   2
   6  -2  -7 18719.7 1119.77   8
   6   2  -7 16704.1 1188.26   8
   6   2  -7 17894.2 1337.54   2
  -6  -2   7 20299.1 1549.30   1
  -6   2   7 19428.3 1294.66   7
  -6   2   7 16489.3 1248.85   1
   6   2  -7 19306.7 1681.25   5
   6  -2  -7 15601.4 1033.54   9
   6   2  -6 40573.8 2127.81   2
   6   2  -6 38461.7 1821.59   8
  -6  -2   6 41615.5 2227.22   1
  -6   2   6 41094.3 1805.98   7
  -6   2   6 38041.3 2257.96   1
   6  -2  -6 37001.5 1722.38   8
   6  -2  -6 38511.7 1632.71   9
   6  -2  -6 37625.5 1972.58   2
   6   2  -6 36202.5 2277.05   5
   6  -2  -5 13590.3 1103.37   8
   6   2  -5 12742.9 1071.46   8
  -6   2   5 13359.9 742.697   4
  -6  -2   5 12484.2 1317.09   1
  -6   2   5 12397.0 1013.39   7
   6   2  -5 11715.9 1201.83   5
   6   2  -5 12470.6 976.286   2
   6  -2  -5 14482.1 1031.70   9
   6  -2  -4 34271.5 1780.51   8
   6   2  -4 33285.6 1788.92   8
  -6  -2   4 33443.0 1603.56   4
  -6   2   4 31841.5 1212.13   4
  -6   2   4 37027.8 1761.92   7
   6   2  -4 30291.2 1772.94   5
  -6  -2   4 32046.2 1492.21  10
  -6  -2   4 27916.6 1674.95   1
   6   2  -4 31218.0 1333.05   2
   6  -2  -3 34984.2 1835.57   8
  -6   2   3 32566.1 1300.85   4
   6   2  -3 35355.0 1952.39   8
  -6  -2   3 34110.1 1724.22   4
  -6   2   3 34417.9 1792.87   7
  -6  -2   3 32601.0 1436.96  10
  -6  -2   3 30954.0 1535.61   1
   6  -2  -2 118712. 3540.11   8
  -6   2   2 117536. 2862.24   4
   6   2  -2 126283. 4107.53   8
  -6  -2   2 119320. 3607.57   4
  -6   2   2 121943. 3326.24   7
  -6  -2   2 115598. 2931.22   1
   6  -2  -1 140424. 3931.24   8
  -6   2   1 132898. 3244.77   4
  -6  -2   1 136347. 4461.52   4
   6   2  -1 142063. 4900.89   8
  -6   2   1 145173. 3575.28   7
  -6  -2   1 132773. 3113.02   1
   6  -2   0 19699.6 1466.55   8
   6   2   0 20528.8 1754.00   8
  -6  -2   0 20052.8 1595.13   4
  -6   2   0 19941.2 1256.18   4
  -6   2   0 21519.4 1314.91   7
  -6  -2   0 22194.8 1243.27   1
  -6   2  -1 53954.1 2127.51   4
   6  -2   1 50903.5 2351.68   8
   6   2   1 59035.5 2796.64   8
  -6  -2  -1 62424.5 2710.31   4
  -6   2  -1 51820.4 2113.39   7
   6  -2   2 49528.6 2345.02   8
  -6   2  -2 48250.6 2113.14   4
   6   2   2 45768.5 2449.25   8
  -6  -2  -2 45686.6 2308.07   4
  -6   2  -2 43632.0 1984.17   7
   6  -2   3 65353.8 2765.55   8
  -6   2  -3 74800.3 2791.85   4
   6   2   3 70509.2 3226.23   8
  -6  -2  -3 74579.8 2991.18   4
   6  -2   4 93.1168 416.547   8
   6   2   4 284.267 730.143   8
  -6   2  -4 8.99507 309.742   4
  -6  -2  -4 102.589 378.003   4
   6  -2   5 7255.12 1040.10   8
   6   2   5 7017.25 1156.84   8
  -6   2  -5 6163.23 892.672   4
  -6  -2  -5 7264.82 1038.46   4
   6   2   6 6827.26 1038.20   8
  -6   2  -6 8319.45 1109.65   4
   6  -2   6 5350.88 885.559   8
   6  -2   7 1829.20 562.337   8
  -6   2  -7 2420.04 657.752   4
  -6  -2  -7 1822.16 662.877   4
  -6   2  -8 15023.4 1588.44   4
  -6  -2  -8 14870.1 1624.66   4
  -6   2  -9 3349.90 849.072   4
  -6  -2  -9 4429.33 1004.76   4
  -6   2 -10 13403.2 1617.95   4
  -6  -2 -10 12804.1 1651.08   4
   6   3 -15 1031.96 629.020   2
  -6   3  15 3010.66 976.940   7
   6  -3 -15 2913.71 1026.15   2
   6   3 -14 3284.60 774.280   2
  -6   3  14 3897.40 970.414   7
   6  -3 -14 2476.39 750.820   2
   6   3 -13-269.296 421.008   2
  -6   3  13-286.126 539.908   7
   6  -3 -13-385.511 635.178   2
   6  -3 -12 10316.1 1429.99   2
  -6   3  12 13005.7 1285.45   1
   6   3 -12 10410.3 1174.07   2
  -6   3  12 10161.8 1383.52   7
   6   3 -11 650.399 411.997   2
  -6   3  11 507.908 336.220   1
  -6   3  11 17.8988 515.194   7
   6  -3 -11 449.969 523.493   2
   6   3 -10-72.5976 306.711   2
  -6   3  10 627.484 358.948   1
  -6   3  10-301.063 550.102   7
   6  -3 -10 1094.81 504.300   2
   6  -3 -10 427.727 430.427   9
   6   3  -9 1189.24 385.581   2
   6  -3  -9 1294.24 422.283   9
  -6   3   9 1551.99 460.194   1
   6   3  -9 1005.04 525.694   5
  -6   3   9 1831.32 630.409   7
   6  -3  -9 665.520 474.332   2
  -6   3   8 3315.09 618.624   1
   6   3  -8 3826.06 752.072   5
   6  -3  -8 3632.78 723.755   2
  -6   3   8 4624.67 766.888   7
   6   3  -8 3142.27 531.161   2
   6  -3  -8 4265.49 674.130   9
   6   3  -7 7409.53 1038.03   5
   6  -3  -7 8419.27 768.501   8
   6   3  -7 8361.80 769.133   2
  -6   3   7 8065.90 963.639   7
  -6   3   7 10666.7 1139.59   1
  -6  -3   7 8208.83 914.533   1
   6  -3  -7 8039.35 885.490   9
   6  -3  -7 8184.48 988.419   2
   6  -3  -6 254.610 387.650   9
   6   3  -6-40.7983 457.238   5
   6  -3  -6 357.704 297.756   8
   6   3  -6 382.523 249.382   2
  -6  -3   6-81.7390 331.302   1
  -6   3   6 667.803 429.747   7
   6  -3  -5 1926.25 594.846   9
   6  -3  -5 2110.44 483.244   8
  -6  -3   5 3700.26 689.764  10
  -6  -3   5 2419.73 487.479   1
  -6   3   5 2700.22 581.673   7
   6   3  -5 2739.54 420.815   2
   6   3  -5 2462.52 704.258   5
   6  -3  -4 112210. 3275.78   8
   6   3  -4 124528. 4329.98   5
  -6   3   4 110199. 2469.33   4
   6   3  -4 116384. 3370.50   8
  -6  -3   4 117717. 3113.97   1
  -6   3   4 112174. 3480.09   7
  -6  -3   4 109247. 3060.79  10
   6  -3  -4 115003. 3365.76   9
   6   3  -3 23889.8 1521.75   8
  -6  -3   3 25113.7 1548.34   4
  -6  -3   3 27819.1 1368.82   1
  -6   3   3 28102.4 1818.57   7
   6  -3  -3 28015.3 1636.21   8
  -6  -3   3 23880.5 1324.14  10
  -6   3   3 26104.6 1191.14   4
   6   3  -3 27348.3 2139.20   5
   6  -3  -2 49173.0 2215.29   8
  -6   3   2 57835.8 1932.92   4
  -6  -3   2 57975.8 1945.56   1
   6   3  -2 53104.4 2370.67   8
  -6  -3   2 57537.5 2408.39   4
  -6   3   2 53161.6 2336.22   7
   6   3  -2 53149.2 2830.03   5
  -6   3   1 84153.7 2544.64   4
   6  -3  -1 83868.2 2983.95   8
  -6  -3   1 88373.7 3183.92   4
  -6  -3   1 86919.6 2399.05   1
  -6   3   1 87540.8 2924.54   7
   6   3  -1 82340.3 3118.65   8
   6   3  -1 83567.9 3388.21   5
   6  -3   0 39606.2 2062.25   8
  -6   3   0 40265.0 1797.54   4
   6   3   0 39629.6 2316.29   8
  -6  -3   0 44459.8 2358.61   4
  -6   3   0 40483.6 1945.08   7
   6  -3   1 149109. 4272.37   8
  -6   3  -1 150571. 3922.46   4
   6   3   1 154293. 5261.39   8
  -6  -3  -1 158424. 5135.27   4
  -6   3  -1 150202. 4027.76   7
   6  -3   2 834.794 492.165   8
   6   3   2 1007.48 785.425   8
  -6   3  -2 1416.61 517.972   4
  -6   3  -2 397.288 396.298   7
  -6  -3  -2-289.548 603.561   4
   6  -3   3 590.559 455.790   8
  -6   3  -3 234.045 366.193   4
  -6  -3  -3-343.663 598.319   4
   6  -3   4 32281.5 2008.93   8
  -6   3  -4 35390.3 2044.11   4
   6   3   4 37642.1 2504.29   8
  -6  -3  -4 38228.3 2583.80   4
   6  -3   5 4412.84 821.990   8
   6   3   5 2232.90 903.758   8
  -6   3  -5 5358.75 858.261   4
  -6  -3  -5 5861.32 1117.39   4
   6  -3   6 4246.34 833.172   8
   6   3   6 5966.49 1168.64   8
  -6   3  -6 7543.05 1063.49   4
  -6  -3  -6 5895.95 1120.58   4
   6  -3   7 2885.68 740.502   8
  -6   3  -7 3103.15 803.915   4
  -6  -3  -7 3532.58 972.391   4
  -6   3  -8 1140.30 629.907   4
  -6  -3  -8 2534.27 997.857   4
  -6   3  -9 1785.08 686.649   4
  -6  -3  -9 1130.36 690.892   4
  -6   4  14 1341.53 765.246   7
   6  -4 -14-84.0930 682.702   2
  -6   4  13 4970.48 1062.26   7
   6  -4 -13 4372.01 1011.48   2
  -6   4  12 2235.24 835.854   7
   6  -4 -12 3340.81 890.545   2
  -6   4  11-250.200 529.505   7
   6  -4 -11-228.256 429.604   2
   6  -4 -10 29182.2 2056.81   2
  -6   4  10 26219.0 1969.63   7
  -6   4  10 25981.8 1644.63   1
   6  -4 -10 27919.7 1772.30   9
  -6   4   9 1618.96 484.960   1
  -6   4   9 3085.71 750.315   7
   6  -4  -9 1183.88 471.845   2
   6  -4  -9 1820.41 508.229   9
   6   4  -8 223.804 463.597   5
   6  -4  -8 630.885 451.876   2
  -6   4   8 278.748 461.148   7
  -6   4   8 677.865 396.369   1
  -6  -4   8 1530.15 731.332  10
   6  -4  -8 243.202 353.870   9
   6  -4  -7 9139.96 901.285   8
   6   4  -7 11208.5 1209.50   5
   6  -4  -7 10540.2 1078.08   9
  -6   4   7 9340.53 1070.62   7
  -6   4   7 10630.5 1288.56   1
  -6  -4   7 12972.2 1312.45  10
   6  -4  -7 10280.3 1149.90   2
   6  -4  -6 25744.1 1522.51   8
  -6   4   6 26269.2 1723.16   7
  -6  -4   6 27356.1 1686.33  10
   6   4  -6 27119.4 1821.17   5
   6  -4  -6 25225.4 1622.84   9
   6  -4  -5 8752.77 913.376   8
   6  -4  -5 7170.56 903.427   9
  -6   4   5 9977.86 1113.40   7
  -6  -4   5 9808.76 994.242  10
   6   4  -5 7736.03 999.789   5
   6  -4  -4 19260.6 1350.93   8
  -6   4   4 20091.6 1557.69   7
  -6  -4   4 16704.8 1217.90  10
   6   4  -4 19734.4 1520.91   5
   6  -4  -4 17324.7 1390.64   9
  -6   4   3 23284.6 1173.77   4
   6  -4  -3 22363.8 1499.08   8
  -6   4   3 22774.1 1823.83   7
   6   4  -3 21221.4 1552.59   5
   6  -4  -3 21325.6 1608.01   9
  -6   4   2 74261.8 2336.76   4
   6   4  -2 81346.6 3029.33   5
   6  -4  -2 80713.8 2927.58   8
  -6  -4   2 74451.5 2947.91   4
  -6   4   2 75671.4 3038.82   7
   6  -4  -1 83639.2 3083.99   8
  -6   4   1 89594.9 2747.42   4
   6   4  -1 87928.3 3217.80   8
  -6  -4   1 97680.5 3445.00   4
  -6   4   1 91033.1 3215.78   7
   6   4  -1 95356.9 3289.12   5
   6  -4   0 12501.5 1217.40   8
  -6   4   0 12445.3 1076.66   4
   6   4   0 15195.8 1360.23   8
  -6  -4   0 15281.6 1370.59   4
  -6   4   0 14089.1 1241.30   7
   6   4   0 14048.4 1235.90   5
   6  -4   1 32503.1 1963.19   8
  -6   4  -1 34230.7 1819.87   4
   6   4   1 36010.8 2238.77   8
  -6  -4  -1 37483.0 2235.44   4
  -6   4  -1 33073.1 1901.73   7
   6   4   1 35605.3 1954.53   5
   6  -4   2 34872.2 2086.45   8
   6   4   2 35590.7 2438.01   8
  -6  -4  -2 33581.1 2245.11   4
  -6   4  -2 32199.7 1876.76   4
  -6   4  -2 30250.6 1843.39   7
   6   4   2 32915.9 1868.31   5
  -6   4  -3 50578.1 2438.12   4
   6  -4   3 44441.1 2397.13   8
   6   4   3 47813.5 3304.48   8
  -6  -4  -3 53195.0 2967.10   4
  -6   4  -3 45279.9 2322.69   7
   6  -4   4 389.110 552.439   8
   6   4   4 1093.85 862.166   8
  -6   4  -4-393.805 488.737   4
  -6  -4  -4 102.261 613.348   4
   6  -4   5 4171.07 841.275   8
   6   4   5 6332.95 1205.39   8
  -6   4  -5 4919.38 898.098   4
  -6  -4  -5 5136.86 1128.46   4
   6  -4   6 5703.32 975.601   8
   6   4   6 3084.92 1025.05   8
  -6   4  -6 4877.85 940.345   4
  -6  -4  -6 6910.63 1375.80   4
   6  -4   7 1849.15 664.882   8
  -6   4  -7 981.390 577.663   4
  -6  -4  -7-222.168 751.408   4
  -6   4  -8 11018.9 1431.51   4
  -6  -4  -8 9916.15 1840.74   4
   6  -5 -14 3449.67 1004.92   2
  -6   5  13 311.630 570.333   7
   6  -5 -13-961.780 787.260   2
  -6   5  12 7513.52 1258.86   7
   6  -5 -12 8536.85 1329.04   2
  -6  -5  12 7620.02 1388.78  10
  -6   5  11 608.040 538.581   7
   6  -5 -11-145.087 418.394   2
  -6   5  10 34.1976 568.152   7
   6  -5 -10-52.1994 421.069   2
   6  -5 -10 349.326 441.738   9
  -6  -5   9 992.920 632.860  10
  -6   5   9 1644.04 617.758   7
   6  -5  -9 619.148 486.740   2
   6  -5  -9 346.052 407.910   9
   6  -5  -8 2020.09 636.284   2
  -6   5   8 2496.30 709.810   7
  -6   5   8 2441.68 584.538   1
  -6  -5   8 2641.75 784.520  10
   6  -5  -8 1638.19 568.988   9
   6   5  -7 4644.85 836.140   5
   6  -5  -7 4721.15 871.230   2
  -6   5   7 3816.27 782.059   7
  -6  -5   7 5233.90 852.106  10
   6  -5  -7 4392.45 805.936   9
   6   5  -6-59.5937 350.189   5
  -6   5   6 143.058 426.046   7
  -6  -5   6-351.771 541.950  10
   6  -5  -6 273.207 454.704   9
   6  -5  -5 572.165 425.820   9
   6   5  -5 750.032 397.302   5
   6  -5  -5 343.068 328.928   8
  -6   5   5 838.062 496.104   7
   6  -5  -4 63143.9 2666.17   8
  -6   5   4 63423.9 3043.63   7
   6   5  -4 65873.7 2761.80   5
   6  -5  -4 61773.1 2849.86   9
   6  -5  -3 17661.9 1426.80   8
  -6   5   3 18769.7 1786.88   7
   6   5  -3 19690.8 1466.42   5
   6  -5  -3 18330.1 1588.55   9
   6  -5  -2 29924.9 1865.61   8
  -6   5   2 27772.5 1472.12   4
  -6   5   2 28668.1 2026.21   7
   6   5  -2 32081.8 1830.08   5
   6  -5  -2 32883.9 2122.20   9
   6  -5  -1 50194.7 2477.91   8
  -6   5   1 51917.6 2150.67   4
   6  -5  -1 47399.3 2631.34   9
  -6   5   1 48573.5 2485.50   7
   6   5  -1 49464.1 2247.75   5
  -6   5   0 27064.6 1636.70   4
   6   5   0 26667.9 1854.18   8
   6  -5   0 25087.0 1783.76   8
  -6  -5   0 30684.7 2132.88   4
  -6   5   0 25579.0 1767.80   7
   6   5   0 27669.7 1643.47   5
   6  -5   1 86232.5 3404.51   8
  -6   5  -1 90591.8 3215.35   4
   6   5   1 93931.8 3711.10   8
  -6  -5  -1 97320.6 3898.74   4
  -6   5  -1 90061.5 3379.78   7
   6   5   1 97311.3 3101.58   5
   6  -5   2 525.875 555.022   8
  -6   5  -2 665.377 441.957   4
   6   5   2 334.047 485.176   8
  -6   5  -2 723.393 491.530   7
  -6  -5  -2 100.581 467.171   4
   6  -5   3-322.890 432.629   8
  -6   5  -3 256.821 424.744   4
   6   5   3 680.816 583.533   8
  -6   5  -3 577.665 494.394   7
  -6  -5  -3-386.318 548.671   4
   6  -5   4 20262.8 1754.86   8
  -6   5  -4 21458.0 1745.72   4
   6   5   4 20492.7 2272.74   8
  -6  -5  -4 23198.0 2163.38   4
   6  -5   5 3320.53 795.072   8
   6   5   5 4455.87 1172.72   8
  -6   5  -5 3037.32 762.335   4
  -6  -5  -5 3484.53 1079.51   4
   6  -5   6 4794.47 947.399   8
  -6   5  -6 3841.63 886.701   4
  -6  -5  -6 5350.57 1406.56   4
   6  -5   7 2270.93 752.974   8
  -6   5  -7 2445.44 738.693   4
   6  -6 -13 2732.23 787.406   2
  -6   6  12 1895.28 770.008   7
   6  -6 -12 1705.39 690.675   2
  -6  -6  12 441.690 854.391  10
  -6   6  11-92.3452 541.007   7
   6  -6 -11 340.934 544.562   2
  -6  -6  11 1009.75 594.494  10
   6  -6 -10 15604.0 1647.22   2
  -6   6  10 14872.4 1661.11   7
  -6  -6  10 15371.6 1654.76  10
   6  -6 -10 12354.7 1420.65   9
  -6  -6   9 859.176 570.179  10
  -6   6   9 755.328 566.326   7
   6  -6  -9 1041.26 549.772   2
   6  -6  -9-153.275 443.251   9
   6  -6  -8-442.875 515.563   2
  -6   6   8 148.432 448.497   7
  -6  -6   8-79.0384 464.659  10
   6  -6  -8 109.218 466.138   9
   6  -6  -7 3411.10 816.977   9
   6  -6  -7 5709.84 956.639   2
  -6   6   7 5175.96 979.599   7
  -6   6   6 11067.7 1320.59   7
   6  -6  -6 11100.8 1353.16   9
   6  -6  -5 7804.10 1105.14   9
  -6   6   5 6430.90 1091.71   7
  -6   6   4 10631.4 1412.66   7
   6  -6  -4 9414.76 1226.54   9
   6   6  -4 10055.0 1135.60   5
   6  -6  -3 10123.0 1309.96   9
  -6   6   3 9172.10 1442.06   7
   6   6  -3 13181.5 1260.17   5
   6  -6  -2 44162.3 2419.67   8
  -6   6   2 39873.8 2557.53   7
   6   6  -2 43187.2 2205.34   5
   6  -6  -2 38793.1 2507.30   9
   6  -6  -1 49217.5 2597.13   8
  -6   6   1 52575.7 2763.98   7
   6   6  -1 52234.6 2389.54   5
   6  -6  -1 49348.9 2833.77   9
   6  -6   0 8236.57 1307.05   9
   6  -6   0 6575.51 1065.47   8
  -6   6   0 6695.08 1028.32   7
   6   6   1 17560.9 1661.34   8
   6  -6   1 18249.6 1675.34   8
  -6   6  -1 16653.7 1548.53   7
   6  -6   2 22675.9 1872.10   8
   6   6   2 19332.0 1792.33   8
  -6  -6  -2 22101.4 2466.56   4
  -6   6  -2 17834.4 1609.33   7
   6  -6   3 23771.4 1968.47   8
  -6   6  -3 27371.8 1998.78   4
   6   6   3 30487.7 2398.39   8
  -6  -6  -3 30213.5 2880.08   4
  -6   6  -3 28267.7 2025.26   7
  -6   6  -4 635.616 601.326   4
   6  -6   4 9.30834 443.036   8
   6   6   4 269.949 570.380   8
  -6   6  -4-271.965 499.114   7
  -6  -6  -4 238.806 751.439   4
   6  -6   5 2683.90 788.098   8
  -6   6  -5 3966.50 963.914   4
   6   6   5 2747.37 1167.96   8
  -6  -6  -5 2100.32 1015.32   4
  -6   6  -6 3608.50 914.264   4
  -6  -7  11-803.839 690.052  10
  -6   7  10-6.03294 502.737   7
  -6  -7  10-348.209 551.723  10
   6  -7 -10-161.860 490.935   9
  -6   7   9 1003.35 620.827   7
   6  -7  -9-63.6555 652.697   9
  -6   7   8 1220.95 714.720   7
   6  -7  -8 926.001 516.195   2
   6  -7  -8-644.958 622.451   9
   6  -7  -7 2787.73 727.131   2
  -6   7   7 2262.87 724.453   7
   6  -7  -7 2066.99 720.344   9
   6  -7  -6 69.4757 372.076   2
  -6   7   6 24.2149 463.085   7
   6  -7  -6 1269.61 701.504   9
  -6   7   5 71.3391 513.487   7
   6  -7  -5 864.448 705.510   9
  -6   7   4 28087.5 2537.53   7
   6  -7  -4 31042.9 2345.69   9
   6  -7  -3 8503.51 1253.13   9
  -6   7   3 10973.6 1567.85   7
  -6   7   2 13476.9 1567.08   7
   6  -7  -2 15560.4 1721.16   9
  -6   7   1 23029.0 1944.16   7
   6  -7  -1 23548.0 2145.03   9
  -6   7   0 14214.8 1501.06   7
   6  -7   0 17486.0 1945.24   9
  -6   7  -1 45688.9 2668.35   7
   6  -7   1 44744.2 3120.80   9
   6  -7   2 1142.42 1069.51   9
   6   7   2-536.827 614.248   8
  -6   7  -2 283.481 462.724   7
   6  -7   3 1683.49 1041.55   9
   6   7   3 564.616 747.626   8
  -6   7  -3 531.786 522.351   7
   6  -7   4 12527.5 1993.68   9
  -6   7  -4 10792.5 1429.98   4
   6   7   4 15416.3 1903.69   8
  -6   7  -4 10059.1 1327.62   7
   6  -7   5 2806.59 1405.68   9
  -6   7  -5 1821.39 742.115   4
  -6   8   7 1326.89 762.796   7
   6  -8  -7 2459.10 778.640   9
  -6   8   6 7438.58 1345.92   7
   6  -8  -6 6144.29 1196.83   9
  -6   8   5 3271.93 1002.90   7
   6  -8  -5 4170.23 994.050   9
  -6   8   4 3422.40 1228.93   7
   6  -8  -4 4596.96 1047.81   9
  -6   8   3 7313.64 1363.27   7
   6  -8  -3 7142.67 1338.86   9
  -6   8   2 21369.8 2101.05   7
   6  -8  -2 15614.3 1914.80   9
  -6   8   1 22409.1 2023.91   7
   6  -8  -1 24021.4 2397.32   9
   6  -8   0 1391.86 751.435   9
  -6   8   0 2832.25 817.724   7
   6  -8   1 7215.97 1438.50   9
  -6   8  -1 8068.28 1220.76   7
   6  -8   2 10395.1 1863.39   9
   6   8   2 12237.8 1638.18   8
  -6   8  -2 9906.40 1392.35   7
  -6   8  -3 12104.2 1501.59   7
   7   0 -16-379.707 678.254   2
   7   0 -15 267.069 724.579   2
   7   0 -14 3855.55 992.920   2
  -7   0  13 5832.43 1099.14   1
   7   0 -13 6447.57 1191.58   2
   7   0 -12 4063.48 894.468   2
  -7   0  12 4007.02 853.474   1
   7   0 -11 21621.4 1800.72   2
  -7   0  11 21664.6 1746.57   1
   7   0 -11 23863.6 1692.98   5
   7   0 -10 100409. 3670.94   2
  -7   0  10 98688.2 3575.81   1
  -7   0  10 103159. 3069.46   7
   7   0 -10 108693. 3497.47   5
  -7   0   9 203.256 305.448   7
   7   0  -9 362.320 426.497   2
  -7   0   9 250.675 414.986   1
   7   0  -9 109.986 367.176   5
   7   0  -8 460.411 297.820   8
  -7   0   8 220.193 310.282   1
  -7   0   8 811.623 310.438   7
   7   0  -8 104.579 334.963   2
   7   0  -8 29.8796 332.843   5
   7   0  -7 215717. 4423.78   8
   7   0  -7 211558. 4903.97   2
  -7   0   7 218790. 4124.91   7
  -7   0   7 221190. 4993.12   1
   7   0  -6 39729.8 1733.13   8
  -7   0   6 38368.0 1521.98   4
  -7   0   6 39306.5 1492.15   7
  -7   0   6 41493.4 1917.81   1
   7   0  -6 40370.3 1357.56   9
   7   0  -6 40303.1 1903.34   2
   7   0  -5 68541.6 2389.96   8
  -7   0   5 67544.5 2302.54   4
  -7   0   5 70434.0 2145.37   7
  -7   0   5 65909.4 2524.65   1
   7   0  -4 41297.4 1896.19   8
  -7   0   4 39443.1 2020.88   4
  -7   0   4 42760.4 1748.11   7
  -7   0   4 40777.2 2322.43   1
  -7   0   3 2551.42 458.734  10
   7   0  -3 2630.86 621.037   8
  -7   0   3 1450.61 427.267   4
  -7   0   3 2294.27 484.229   7
   7   0  -2 39500.1 2022.40   8
  -7   0   2 42070.4 1892.84   4
  -7   0   2 41611.8 1641.02   7
  -7   0   2 39756.9 1337.62  10
   7   0  -1 483.733 519.405   8
  -7   0   1 256.706 258.917   7
  -7   0   1 972.666 490.938   4
   7   0   0 42167.0 2433.43   8
  -7   0   0 42364.7 1966.94   4
   7   0   1 6756.51 1426.78   8
  -7   0  -1 5747.26 781.519   4
   7   0   2 3293.50 999.390   8
  -7   0  -2 3156.26 658.524   4
   7   0   3 6559.61 1154.97   8
  -7   0  -3 5483.14 812.099   4
   7   0   4 31412.0 2155.32   8
  -7   0  -4 33139.2 2018.26   4
   7   0   5 5749.32 988.429   8
  -7   0  -5 6456.41 941.977   4
   7   0   6 2157.18 739.267   8
  -7   0  -6 1373.67 594.567   4
   7   0   7 13424.2 1436.48   8
  -7   0  -7 14655.5 1524.48   4
  -7   0  -8 951.378 573.604   4
  -7   0  -9-194.106 489.062   4
   7   1 -16 5929.79 1466.76   2
   7   1 -15 10358.0 1735.80   2
   7  -1 -15 9316.79 1512.56   2
   7   1 -14 5310.22 1331.09   2
   7  -1 -14 4616.75 1043.84   2
  -7   1  13 160.125 445.649   1
  -7   1  13 674.016 537.685   7
   7  -1 -13-296.397 676.844   2
   7   1 -13-234.238 609.970   2
   7  -1 -12 48520.3 2782.40   2
   7   1 -12 43945.1 3013.03   2
  -7   1  12 48198.7 2610.78   1
  -7   1  12 47430.6 2525.06   7
  -7  -1  12 50343.9 3311.23   1
   7   1 -12 48124.4 2824.97   5
   7   1 -11 1489.80 609.828   5
  -7  -1  11-509.927 548.119   1
  -7   1  11 594.968 427.272   1
  -7   1  11-27.5177 379.876   7
   7  -1 -11-254.654 377.746   2
   7   1 -11 386.721 544.646   2
   7   1 -10 909.401 443.521   5
  -7  -1  10 302.951 453.555   1
  -7   1  10-46.5941 313.086   1
  -7   1  10 636.250 399.606   7
   7  -1 -10 966.611 489.178   2
   7   1 -10 963.781 553.147   2
   7  -1 -10 32.8236 262.809   5
   7  -1  -9 128227. 4010.55   2
   7   1  -9 127134. 4091.62   2
  -7   1   9 128421. 3524.00   7
   7  -1  -9 128345. 3503.03   5
   7   1  -9 139016. 4184.91   5
  -7   1   9 132392. 3856.72   1
   7  -1  -8 68055.0 2709.22   2
   7   1  -8 65761.2 2632.82   2
  -7  -1   8 71585.8 2865.31   1
   7   1  -8 68502.3 2285.43   8
  -7   1   8 68679.0 2347.51   7
  -7   1   8 69492.6 2650.51   1
   7  -1  -8 66694.9 2421.97   5
   7   1  -8 74004.7 2810.23   5
   7  -1  -7 29977.8 1767.78   2
  -7  -1   7 33953.1 1820.24   1
   7   1  -7 28109.8 1599.83   2
   7  -1  -7 30373.8 1544.39   8
   7   1  -7 30187.9 1562.55   8
  -7   1   7 30841.5 1484.04   7
  -7   1   7 30334.1 1698.83   1
   7   1  -7 34840.9 1857.00   5
   7  -1  -7 30044.8 1285.62   9
   7  -1  -6 20756.5 1340.09   8
   7   1  -6 20198.8 1330.74   8
   7   1  -6 21145.3 1317.04   2
  -7   1   6 20539.5 1057.85   4
  -7  -1   6 21735.7 1215.65   4
  -7   1   6 23766.9 1283.36   7
  -7   1   6 21983.9 1538.98   1
   7   1  -6 24118.7 1546.19   5
  -7  -1   6 21346.8 1369.54   1
   7  -1  -6 22791.0 1173.89   9
   7  -1  -5 85396.8 2862.94   8
   7   1  -5 81778.6 2807.91   8
  -7   1   5 77691.0 2599.65   4
  -7  -1   5 79909.6 2544.10   4
  -7  -1   5 85375.0 2165.04   7
  -7   1   5 82885.4 2531.27   7
  -7   1   5 81782.0 3300.32   1
  -7  -1   5 80579.8 2643.30   1
   7   1  -5 82103.4 2614.06   2
   7  -1  -4 52059.9 2338.87   8
   7   1  -4 48654.7 2162.20   8
  -7   1   4 50394.5 1887.77   4
  -7  -1   4 51312.6 2162.80   4
  -7  -1   4 53329.6 1612.63   7
  -7   1   4 51680.9 2131.47   7
  -7  -1   4 46346.7 1955.32   1
   7  -1  -3 29699.2 1884.09   8
   7   1  -3 29226.1 1699.47   8
  -7   1   3 27939.1 1401.40   4
  -7  -1   3 28399.7 1930.84   4
  -7  -1   3 30790.4 1227.09   7
  -7   1   3 28302.7 1558.08   7
  -7  -1   3 30346.0 1650.00   1
  -7  -1   3 29651.2 1341.11  10
   7  -1  -2 1512.93 769.015   8
   7   1  -2 44.7546 479.866   8
  -7   1   2 1622.89 423.534   4
  -7  -1   2 1014.74 513.622   4
  -7   1   2 410.327 340.418   7
  -7  -1   2 710.756 477.266   1
   7  -1  -1 2693.60 1050.40   8
   7   1  -1 2351.61 602.258   8
  -7   1   1 2147.05 527.313   4
  -7  -1   1 1778.04 577.091   4
  -7   1   1 2879.13 528.583   7
   7  -1   0 5038.36 1121.94   8
   7   1   0 6026.31 936.987   8
  -7   1   0 6115.89 740.657   7
  -7   1   0 5614.64 719.706   4
  -7  -1   0 6816.40 889.476   4
   7  -1   1 232.330 593.248   8
   7   1   1 734.381 596.247   8
  -7   1  -1 88.0257 332.320   4
  -7  -1  -1-7.44123 389.548   4
   7   1   2 63038.4 3215.64   8
  -7   1  -2 66317.6 2650.72   4
  -7  -1  -2 65852.5 2775.52   4
   7  -1   2 63290.8 3009.44   8
   7  -1   3 5623.88 1025.30   8
   7   1   3 7318.60 1534.95   8
  -7   1  -3 7086.40 941.869   4
  -7  -1  -3 6808.56 954.171   4
   7  -1   4 10880.2 1268.26   8
   7   1   4 14972.0 1657.35   8
  -7  -1  -4 15483.9 1428.96   4
  -7   1  -4 12824.8 1283.19   4
   7  -1   5 16434.9 1558.49   8
   7   1   5 18572.7 1752.98   8
  -7   1  -5 17315.4 1532.56   4
  -7  -1  -5 18719.5 1630.81   4
   7  -1   6 3869.96 815.289   8
   7   1   6 3742.88 911.502   8
  -7   1  -6 2464.54 694.384   4
  -7  -1  -6 3853.20 813.787   4
   7  -1   7 4427.80 965.687   8
  -7   1  -7 6904.00 1079.20   4
  -7  -1  -7 5438.75 1003.02   4
  -7   1  -8 4231.47 920.664   4
  -7  -1  -8 3829.84 912.445   4
  -7   1  -9 2912.50 900.525   4
  -7  -1  -9 2873.09 864.753   4
   7   2 -15-447.587 723.376   2
  -7   2  15-213.090 547.936   7
   7  -2 -15 310.919 677.311   2
  -7   2  14 2839.14 800.791   1
   7   2 -14 3080.99 992.723   2
  -7   2  14 4046.54 966.684   7
   7  -2 -14 3771.57 941.740   2
   7   2 -13 5538.83 1221.42   2
  -7   2  13 8131.17 1106.64   1
  -7   2  13 5030.75 964.168   7
   7  -2 -13 7067.01 1151.56   2
  -7   2  12 3852.64 722.122   1
  -7   2  12 2054.73 662.823   7
   7  -2 -12 4586.62 908.653   2
   7   2 -12 2931.47 810.652   2
  -7   2  11 17839.1 1469.72   1
   7  -2 -11 19553.0 1667.08   2
   7   2 -11 16240.3 1725.96   2
  -7   2  11 17824.2 1522.37   7
   7   2 -11 19846.5 1927.38   5
   7  -2 -10 87871.7 3449.82   2
  -7   2  10 88550.9 3228.84   7
  -7  -2  10 97203.6 4409.10   1
   7   2 -10 89746.6 3976.22   2
   7   2 -10 88943.2 4088.48   5
  -7   2  10 92336.4 3247.16   1
   7   2  -9 1399.19 689.063   5
  -7   2   9 371.628 334.428   1
  -7  -2   9-132.797 645.351   1
  -7   2   9 695.670 397.363   7
   7  -2  -9 472.132 403.151   2
   7   2  -9 758.803 578.008   2
   7  -2  -9 468.987 310.507   5
  -7   2   8 861.961 402.338   1
   7  -2  -8 1030.69 386.644   9
   7   2  -8 496.493 595.683   8
   7   2  -8 355.201 480.099   5
   7  -2  -8 388.727 386.294   2
  -7   2   8 986.277 470.360   7
   7   2  -8-11.5334 498.732   2
  -7  -2   8 417.970 490.125   1
   7  -2  -7 198116. 4804.53   8
   7   2  -7 172640. 4512.70   2
   7   2  -7 186866. 5259.72   8
  -7  -2   7 195306. 5373.92   1
  -7   2   7 173525. 4229.48   7
  -7   2   7 185568. 4907.11   1
   7   2  -7 184468. 5049.46   5
   7  -2  -7 180868. 4022.68   9
   7  -2  -7 184417. 4849.54   2
   7  -2  -6 35407.7 2046.15   8
  -7  -2   6 36037.4 1997.25   1
   7   2  -6 34304.7 2185.91   8
   7   2  -6 35613.0 2018.88   5
  -7   2   6 34318.9 1696.57   7
  -7   2   6 32840.6 2163.76   1
   7   2  -6 33346.5 1635.72   2
   7  -2  -6 34862.0 1644.90   9
  -7  -2   5 58474.8 2347.44   1
   7   2  -5 55973.1 1982.06   2
   7  -2  -5 56757.7 2779.18   8
   7   2  -5 53497.5 2869.42   8
  -7   2   5 57079.0 1823.50   4
  -7  -2   5 57557.2 2211.86   4
  -7   2   5 55144.3 2214.08   7
   7   2  -5 60647.6 2548.80   5
  -7  -2   5 55145.3 2206.33  10
   7  -2  -5 58574.5 2210.57   9
   7  -2  -4 33223.6 2199.50   8
   7   2  -4 36482.8 2494.76   8
  -7   2   4 35986.7 1460.02   4
  -7  -2   4 36464.2 1809.62   4
  -7   2   4 38351.9 1928.42   7
   7   2  -4 35648.7 1923.80   5
  -7  -2   4 36046.5 1660.79  10
  -7  -2   4 34449.1 1685.50   1
   7   2  -4 35424.3 1520.63   2
   7  -2  -3 858.098 653.682   8
   7   2  -3 1601.92 792.251   8
  -7  -2   3 1930.85 408.240   1
  -7   2   3 617.759 250.407   4
  -7  -2   3 2151.15 562.540   4
  -7   2   3 1484.90 562.224   7
  -7  -2   3 954.802 344.561  10
   7  -2  -2 33592.9 2185.98   8
  -7   2   2 33421.3 1559.81   4
   7   2  -2 29459.6 2106.48   8
  -7  -2   2 35358.5 2119.90   4
  -7   2   2 34957.0 1824.39   7
  -7  -2   2 34697.6 1559.73   1
   7  -2  -1 420.880 562.547   8
   7   2  -1 543.629 621.984   8
  -7   2   1 387.558 270.661   4
  -7  -2   1 1226.45 788.330   4
  -7   2   1 520.858 393.894   7
  -7  -2   1 225.314 237.688   1
   7  -2   0 36903.4 2240.73   8
  -7   2   0 37839.7 1820.93   4
   7   2   0 33326.3 2111.08   8
  -7  -2   0 34375.8 2243.94   4
  -7   2   0 36292.7 1854.62   7
  -7  -2   0 39728.3 1835.10   1
  -7   2  -1 6117.96 856.335   4
   7  -2   1 5209.92 973.594   8
   7   2   1 6859.02 966.395   8
  -7  -2  -1 3758.05 799.016   4
  -7   2  -1 5686.18 790.112   7
   7  -2   2 2825.24 772.734   8
   7   2   2 2903.37 726.085   8
  -7   2  -2 3796.37 729.606   4
  -7  -2  -2 2340.06 611.355   4
   7  -2   3 5300.39 964.199   8
   7   2   3 5217.74 1004.30   8
  -7   2  -3 4705.26 772.879   4
  -7  -2  -3 6562.22 1028.41   4
   7  -2   4 27524.1 1965.74   8
  -7   2  -4 27532.0 1892.05   4
   7   2   4 26876.3 2531.32   8
  -7  -2  -4 28420.4 2027.36   4
   7  -2   5 4773.44 922.601   8
   7   2   5 5170.11 1132.66   8
  -7   2  -5 7321.40 1057.08   4
  -7  -2  -5 5745.17 972.856   4
   7  -2   6 1198.70 568.745   8
   7   2   6 472.905 629.459   8
  -7   2  -6 468.874 551.500   4
  -7  -2  -6 811.034 589.948   4
  -7   2  -7 14719.5 1561.73   4
  -7  -2  -7 14161.4 1665.22   4
   7  -2   7 11964.8 1393.50   8
  -7   2  -8-500.411 532.173   4
  -7  -2  -8 602.525 618.667   4
  -7  -2  -9-210.924 652.634   4
   7   3 -15 6509.89 1252.22   2
  -7   3  15 6826.66 1214.03   7
   7  -3 -15 6606.05 1226.47   2
   7   3 -14 3987.61 955.598   2
  -7   3  14 3111.99 907.594   7
   7  -3 -14 3444.66 854.478   2
   7   3 -13 642.250 570.498   2
  -7   3  13 953.474 554.515   7
  -7   3  13-211.685 367.956   1
   7  -3 -13 779.362 542.663   2
   7  -3 -12 40864.2 2573.78   2
  -7   3  12 38381.2 2218.94   1
   7   3 -12 36305.8 2352.22   2
  -7   3  12 36867.6 2388.81   7
   7   3 -11 53.3321 421.451   2
   7   3 -11-547.845 673.668   5
  -7   3  11-229.422 458.603   7
   7  -3 -11-221.683 427.067   2
  -7   3  11 101.539 318.916   1
   7   3 -10 1335.18 746.818   5
  -7   3  10-36.9129 322.069   1
  -7   3  10-195.341 390.777   7
   7  -3 -10 431.515 417.109   2
   7   3 -10 353.933 457.813   2
   7  -3  -9 104491. 3711.38   2
   7   3  -9 93342.7 3170.68   8
   7   3  -9 102764. 3416.92   2
  -7   3   9 103145. 3515.58   7
  -7   3   9 95353.5 3341.01   1
   7  -3  -9 99238.2 3118.02   9
   7   3  -9 109247. 4536.78   5
   7  -3  -8 59901.9 2711.66   2
   7   3  -8 50871.1 2286.22   8
   7   3  -8 58500.2 2395.97   2
  -7   3   8 51401.2 2350.96   7
  -7  -3   8 61670.8 2856.06   1
  -7   3   8 51695.2 2466.81   1
   7   3  -8 54885.7 3312.58   5
   7  -3  -8 53430.7 2214.61   9
   7  -3  -7 25872.2 1594.45   8
   7   3  -7 21819.5 1521.22   8
  -7   3   7 24882.4 1584.10   7
  -7  -3   7 28182.5 1893.87   1
  -7   3   7 26802.9 2055.35   1
   7   3  -7 23807.9 2171.46   5
   7  -3  -7 23133.6 1443.56   9
   7  -3  -7 27487.0 1840.04   2
   7  -3  -6 16947.5 1349.07   8
   7   3  -6 14669.5 1246.05   8
  -7  -3   6 18199.6 1482.14   1
  -7   3   6 17525.5 1321.79   7
  -7  -3   6 17065.5 1423.55  10
   7   3  -6 17854.9 1762.41   5
   7  -3  -6 15441.6 1207.15   9
   7  -3  -5 61736.6 2636.66   8
   7   3  -5 57302.4 2540.27   8
   7   3  -5 56475.4 2894.44   5
  -7  -3   5 61946.4 2710.51   1
  -7   3   5 58921.0 2455.23   7
  -7  -3   5 63251.6 2484.04  10
   7  -3  -5 60835.2 2446.84   9
   7  -3  -4 34616.9 2029.90   8
  -7  -3   4 36973.0 2084.00   1
  -7   3   4 41898.9 1549.64   4
   7   3  -4 34051.2 2024.22   8
  -7  -3   4 39533.2 1971.25   4
  -7   3   4 38604.3 2079.71   7
  -7  -3   4 41779.6 1875.62  10
   7   3  -4 41400.9 2353.93   5
   7  -3  -4 38532.7 1991.81   9
   7  -3  -3 19385.9 1544.87   8
  -7  -3   3 22328.3 1639.22   1
  -7   3   3 20706.0 1171.74   4
   7   3  -3 21045.4 1669.89   8
  -7  -3   3 20650.4 1464.85   4
  -7   3   3 19445.7 1634.13   7
   7   3  -3 17878.6 1518.31   5
   7  -3  -2 488.963 445.435   8
   7   3  -2 1171.00 600.363   8
  -7   3   2 789.676 357.636   4
  -7   3   2 816.117 523.600   7
  -7  -3   2 717.172 412.496   4
  -7  -3   2 67.3732 376.846   1
   7   3  -2 312.050 366.832   5
   7  -3  -1 715.678 577.467   8
   7   3  -1 813.437 689.989   8
  -7   3   1 1210.55 393.788   4
  -7   3   1 1352.22 503.663   7
  -7  -3   1 1748.61 593.607   4
   7  -3   0 3196.72 744.582   8
   7   3   0 3169.62 1060.76   8
  -7   3   0 4116.24 680.514   4
  -7   3   0 3350.15 651.629   7
  -7  -3   0 3544.63 761.609   4
   7  -3   1-481.958 469.560   8
   7   3   1-90.8319 630.366   8
  -7   3  -1 75.6369 332.782   4
  -7   3  -1-141.484 342.301   7
  -7  -3  -1 84.3202 669.539   4
   7  -3   2 45737.3 2500.67   8
  -7   3  -2 48637.1 2318.63   4
   7   3   2 45273.9 2732.43   8
  -7  -3  -2 51247.8 3186.18   4
  -7   3  -2 50268.2 2395.07   7
   7  -3   3 5599.73 959.571   8
   7   3   3 5454.94 999.518   8
  -7   3  -3 4517.72 798.864   4
  -7  -3  -3 6406.03 1237.58   4
   7  -3   4 9565.31 1230.98   8
  -7   3  -4 9894.50 1178.67   4
   7   3   4 10737.9 1473.74   8
  -7  -3  -4 9466.12 1371.59   4
   7  -3   5 11605.2 1344.68   8
  -7   3  -5 13412.9 1409.04   4
  -7  -3  -5 12897.3 1654.86   4
   7   3   5 15120.2 2026.23   8
   7  -3   6 2248.71 669.631   8
   7   3   6 3061.93 954.521   8
  -7   3  -6 1450.18 580.378   4
  -7  -3  -6 2157.54 935.950   4
   7  -3   7 3257.83 803.926   8
  -7   3  -7 4174.58 959.698   4
  -7  -3  -7 4051.35 1011.03   4
  -7   3  -8 5279.54 1056.59   4
  -7  -3  -8 4028.12 1131.42   4
  -7  -3  -9 1390.46 796.453   4
  -7   4  14 2390.82 766.249   7
   7  -4 -14 1677.51 648.061   2
  -7   4  13 2344.82 782.457   7
   7  -4 -13 4297.57 979.401   2
  -7   4  12 1575.01 679.653   7
   7  -4 -12 2958.76 807.849   2
   7  -4 -11 15972.6 1575.87   2
  -7   4  11 15758.9 1558.00   7
  -7   4  11 14576.7 1299.13   1
   7  -4 -10 66840.8 3108.57   2
  -7   4  10 63743.4 3005.40   7
  -7   4  10 62011.1 2705.28   1
   7  -4 -10 62243.9 2696.94   9
   7   4 -10 68095.4 3527.68   5
   7   4  -9 443.780 457.924   5
   7   4  -9 68.9512 328.800   8
   7  -4  -9 198.648 378.355   2
  -7   4   9 674.150 501.447   7
  -7   4   9 708.864 415.667   1
   7  -4  -9 901.966 510.051   9
   7   4  -8 194.732 555.389   5
   7  -4  -8-145.305 370.189   2
  -7   4   8 484.762 478.443   7
  -7   4   8 966.637 522.030   1
  -7  -4   8 1467.74 774.613  10
   7  -4  -8 335.223 401.873   9
   7  -4  -7 122383. 3721.08   8
  -7   4   7 117697. 3838.96   7
  -7   4   7 114644. 4244.66   1
  -7  -4   7 125272. 4050.50  10
   7   4  -7 124691. 4673.16   5
   7  -4  -7 112403. 3647.13   9
   7  -4  -7 130343. 4295.47   2
   7  -4  -6 24488.4 1615.35   8
   7   4  -6 24772.5 1655.98   8
  -7   4   6 24911.6 1692.54   7
  -7  -4   6 28510.5 1782.13  10
   7   4  -6 27477.7 2168.93   5
   7  -4  -6 23020.8 1588.09   9
   7  -4  -5 34920.0 1997.45   8
   7   4  -5 38033.0 2083.15   8
  -7   4   5 37904.7 2110.94   7
   7  -4  -5 32713.2 1949.86   9
  -7  -4   5 34134.5 1865.17  10
   7   4  -5 36256.6 2506.05   5
   7  -4  -4 18766.9 1496.64   8
   7   4  -4 21432.3 1583.58   8
  -7   4   4 20357.0 1655.51   7
  -7  -4   4 24949.7 1387.76   1
   7   4  -4 24747.8 2114.55   5
   7  -4  -4 22232.7 1626.57   9
   7  -4  -3 1630.54 689.593   9
   7  -4  -3 1502.99 601.714   8
   7   4  -3 1210.84 539.561   8
  -7   4   3 1133.49 343.700   4
  -7  -4   3 1376.27 391.684   1
  -7   4   3 639.649 679.761   7
  -7  -4   3 1207.78 521.924   4
   7   4  -3 1750.11 681.109   5
   7  -4  -2 20624.2 1610.34   8
  -7   4   2 21424.1 1300.79   4
   7   4  -2 20548.9 1678.55   8
  -7  -4   2 20432.3 1575.56   4
  -7   4   2 21253.5 1726.21   7
   7   4  -2 25550.6 2226.14   5
   7  -4  -1 695.799 517.884   8
   7   4  -1 1159.33 576.260   8
  -7   4   1 1325.11 466.666   4
  -7   4   1 1235.07 622.253   7
  -7  -4   1 968.442 528.942   4
   7   4  -1 1926.83 811.303   5
   7  -4   0 24755.3 1809.78   8
  -7   4   0 24409.2 1556.92   4
   7   4   0 24143.4 2049.22   8
  -7  -4   0 27402.0 1908.19   4
  -7   4   0 23482.3 1695.04   7
   7   4   0 24874.3 2175.94   5
   7  -4   1 2793.33 726.014   8
   7   4   1 3364.27 1029.61   8
  -7   4  -1 3540.58 690.863   4
  -7   4  -1 3709.27 763.862   7
  -7  -4  -1 3455.02 848.283   4
   7   4   1 2590.73 773.362   5
   7  -4   2 1860.74 648.949   8
   7   4   2 2011.30 946.363   8
  -7   4  -2 761.494 411.008   4
  -7   4  -2 2148.87 596.331   7
  -7  -4  -2 1942.37 656.467   4
   7  -4   3 2989.82 746.119   8
   7   4   3 4606.68 1103.99   8
  -7   4  -3 4461.53 800.468   4
  -7  -4  -3 5710.05 1019.15   4
   7  -4   4 19948.5 1750.07   8
  -7   4  -4 19458.1 1687.00   4
   7   4   4 21584.7 2056.50   8
  -7  -4  -4 21450.0 2120.47   4
   7  -4   5 3856.34 889.544   8
   7   4   5 2833.67 864.287   8
  -7   4  -5 3667.41 829.364   4
  -7  -4  -5 5144.24 1189.27   4
   7  -4   6 813.495 630.940   8
  -7   4  -6 982.842 624.921   4
  -7  -4  -6 796.144 830.072   4
   7  -4   7 6126.02 1095.21   8
  -7   4  -7 9551.94 1320.81   4
  -7  -4  -7 10172.5 1729.06   4
  -7  -4  -8 353.869 778.973   4
  -7   5  13 155.701 520.390   7
   7  -5 -13 592.676 484.103   2
  -7  -5  13 1036.45 818.816  10
   7  -5 -12 24500.6 2088.53   2
  -7   5  12 21913.7 1965.07   7
  -7  -5  12 21766.9 2043.54  10
  -7   5  11 15.8745 479.711   7
   7  -5 -11 566.793 436.938   2
  -7  -5  11 1416.79 931.776  10
   7  -5 -11-215.537 445.642   9
  -7  -5  10 360.922 804.862  10
  -7   5  10-283.182 508.061   7
   7  -5 -10-383.837 549.665   2
   7  -5 -10 150.528 413.846   9
   7  -5  -9 66426.0 3125.00   2
  -7   5   9 63673.0 3052.38   7
  -7   5   9 63843.0 2878.64   1
  -7  -5   9 62600.7 3308.36  10
   7  -5  -9 64217.8 2930.98   9
  -7  -5   8 35337.7 2302.22  10
   7  -5  -8 39781.1 2368.36   2
  -7   5   8 34164.9 2172.25   7
  -7   5   8 38627.8 2528.60   1
   7  -5  -8 35065.7 2127.08   9
   7   5  -8 37849.4 2512.22   5
  -7   5   7 11850.6 1272.17   7
  -7  -5   7 13321.8 1361.61  10
   7  -5  -7 15014.8 1400.91   9
   7   5  -7 17596.8 1687.62   5
   7  -5  -7 15701.7 1524.68   2
   7  -5  -6 9079.89 1102.60   9
   7  -5  -6 11139.5 1187.62   8
  -7   5   6 12110.4 1311.53   7
  -7  -5   6 8823.59 1033.19  10
   7   5  -6 10608.1 1287.45   5
   7  -5  -5 36754.5 2140.49   8
  -7   5   5 36490.1 2248.79   7
   7   5  -5 37888.2 2364.81   5
   7  -5  -5 36258.0 2182.80   9
   7  -5  -4 24666.6 1762.10   8
  -7   5   4 22582.7 1849.44   7
   7   5  -4 24645.5 1857.52   5
   7  -5  -4 23509.3 1803.80   9
   7  -5  -3 11780.4 1256.03   8
   7   5  -3 8855.68 1092.06   8
  -7   5   3 11444.9 1488.15   7
   7   5  -3 14028.0 1383.58   5
   7  -5  -3 12852.7 1381.25   9
   7  -5  -2 695.178 563.376   9
   7  -5  -2-349.156 481.575   8
   7   5  -2-24.8326 447.986   8
   7   5  -2 137.939 331.420   5
  -7   5   2 128.546 604.528   7
   7   5  -1 443.568 329.978   5
   7  -5  -1 165.242 478.755   8
  -7   5   1 792.156 402.343   4
   7   5  -1 1261.09 552.103   8
  -7  -5   1 1379.24 554.643   4
   7  -5   0 1983.78 644.641   8
  -7   5   0 1636.53 536.832   4
   7   5   0 2642.24 827.226   8
  -7   5   0 838.044 537.293   7
  -7  -5   0 1037.69 487.418   4
   7   5   0 1963.62 505.157   5
   7  -5   1-360.535 486.074   8
  -7   5  -1 318.359 430.164   4
   7   5   1-191.976 608.405   8
  -7   5  -1 22.6401 506.122   7
  -7  -5  -1 402.469 512.976   4
   7  -5   2 28574.5 2083.50   8
  -7   5  -2 29482.6 1973.06   4
   7   5   2 35534.6 2890.08   8
  -7  -5  -2 31053.8 2247.95   4
  -7   5  -2 28861.9 2034.75   7
   7  -5   3 4002.26 882.285   8
   7   5   3 5976.17 1528.13   8
  -7   5  -3 3844.62 859.419   4
  -7   5  -3 3267.37 769.537   7
  -7  -5  -3 4719.75 1076.33   4
   7  -5   4 4493.56 931.845   8
   7   5   4 7158.18 1454.91   8
  -7   5  -4 5138.21 961.214   4
  -7  -5  -4 7218.71 1258.33   4
   7  -5   5 8618.26 1311.42   8
   7   5   5 8822.65 1491.78   8
  -7   5  -5 9044.42 1280.88   4
  -7  -5  -5 7932.46 1324.99   4
   7  -5   6 2219.99 761.894   8
  -7   5  -6 2993.57 829.879   4
  -7  -5  -6 3470.83 1115.17   4
   7  -5   7 1892.38 769.249   8
  -7  -6  12 2266.01 942.345  10
   7  -6 -12 994.106 528.719   2
  -7   6  11 8757.29 1289.37   7
   7  -6 -11 8290.71 1257.09   2
  -7  -6  11 10957.9 1651.58  10
   7  -6 -11 8635.07 1188.30   9
   7  -6 -10 40084.1 2562.29   2
  -7   6  10 38673.6 2553.90   7
  -7  -6  10 39513.7 2770.30  10
   7  -6 -10 33640.3 2325.88   9
  -7   6   9 324.113 487.142   7
   7  -6  -9-14.8862 483.128   2
  -7  -6   9 696.277 509.645  10
   7  -6  -9 820.184 542.045   9
   7  -6  -8-620.603 520.895   9
   7  -6  -8 19.4116 396.875   2
  -7  -6   8-872.650 696.325  10
  -7   6   7 67102.8 3243.36   7
   7  -6  -7 66444.3 3178.67   9
   7  -6  -7 69250.0 3316.27   2
   7  -6  -6 18559.5 1670.43   9
  -7   6   6 15291.3 1570.18   7
   7   6  -6 17024.9 1657.72   5
  -7   6   5 22409.0 1904.54   7
   7  -6  -5 17156.5 1639.46   9
   7   6  -5 19880.0 1714.70   5
   7  -6  -4 11316.9 1311.90   8
  -7   6   4 9577.14 1384.35   7
   7  -6  -4 14371.7 1538.63   9
   7   6  -4 11965.8 1324.97   5
   7  -6  -3 1068.27 611.963   9
   7   6  -3 1089.63 487.164   5
   7  -6  -3 2257.14 712.965   8
  -7   6   3 1957.98 809.339   7
   7  -6  -2 10265.4 1397.66   9
   7  -6  -2 10513.2 1309.53   8
  -7   6   2 10473.0 1447.66   7
   7   6  -2 12754.1 1301.72   5
   7   6  -1 533.718 355.324   5
   7  -6  -1 1664.11 844.275   9
   7  -6  -1 846.242 502.124   8
   7   6  -1-297.840 458.109   8
  -7   6   1-279.518 445.394   7
   7  -6   0 14045.4 1527.25   8
  -7   6   0 14203.4 1317.67   4
   7   6   0 12980.7 1504.24   8
   7  -6   0 12914.5 1628.80   9
  -7   6   0 14921.1 1560.17   7
   7  -6   1 4655.98 1145.41   9
   7  -6   1 1931.77 691.369   8
  -7   6  -1 1754.61 637.386   4
   7   6   1 2671.32 712.883   8
  -7   6  -1 2541.32 769.058   7
   7  -6   2 207.168 473.384   8
  -7   6  -2 1271.94 669.930   4
   7   6   2 1523.01 879.769   8
  -7   6  -2 91.1406 450.521   7
  -7  -6  -2 2033.04 761.344   4
   7  -6   3 845.323 491.351   8
   7   6   3 1405.99 968.316   8
  -7   6  -3 2593.70 781.514   4
  -7   6  -3 1575.26 673.975   7
  -7  -6  -3 3100.21 873.578   4
  -7   6  -4 10686.6 1385.96   4
   7  -6   4 9970.75 1378.34   8
   7   6   4 9872.54 1973.61   8
  -7  -6  -4 11994.8 1756.30   4
   7  -6   5 1441.70 740.718   8
   7   6   5 4786.93 1409.98   8
  -7   6  -5 3600.38 926.437   4
  -7  -6  -5 2800.33 1134.00   4
   7  -7 -10 478.162 499.980   2
   7  -7 -10 307.441 502.663   9
   7  -7  -9 33639.0 2387.41   2
  -7   7   9 35436.6 2551.20   7
   7  -7  -9 29086.2 2278.18   9
   7  -7  -8 20996.6 1860.74   2
  -7   7   8 19349.5 1852.70   7
   7  -7  -8 20412.3 1898.31   9
   7  -7  -7 6438.85 1089.64   2
  -7   7   7 8741.28 1327.46   7
   7  -7  -7 7447.74 1183.22   9
  -7   7   6 5848.48 1117.90   7
   7  -7  -6 5702.23 1015.60   2
   7  -7  -6 7437.72 1172.18   9
  -7   7   5 18915.7 1943.41   7
   7  -7  -5 19125.8 1853.96   9
  -7   7   4 12981.5 1746.96   7
   7  -7  -4 13557.0 1557.91   9
   7  -7  -3 2564.58 807.034   9
  -7   7   3 6093.22 1315.04   7
   7  -7  -2 394.361 529.555   9
   7   7  -2-466.314 509.175   5
  -7   7   2-1100.40 635.682   7
   7  -7  -1 131.797 592.050   9
   7   7  -1 893.214 630.772   8
  -7   7   1-89.7802 491.516   7
   7  -7   0 1518.92 830.281   9
   7   7   0 250.135 511.544   8
  -7   7   0 1558.50 723.063   7
   7  -7   1 419.734 736.195   9
  -7   7  -1-86.5455 361.561   4
   7   7   1-459.251 643.758   8
  -7   7  -1-189.295 468.616   7
  -7   7  -2 13457.6 1477.46   4
   7   7   2 15069.5 1853.09   8
  -7   7  -2 13676.7 1602.68   7
   7  -7   2 15357.2 1952.83   9
  -7   7  -3 2704.38 788.226   4
   7   7   3 3071.65 1036.52   8
  -7   7  -3 1573.29 678.734   7
   7   7   4 1881.86 1130.22   8
  -7   8   6 9424.90 1470.75   7
   7  -8  -6 10285.8 1444.73   9
  -7   8   5 10606.3 1599.38   7
   7  -8  -5 7289.13 1289.46   9
  -7   8   4 4977.77 1299.45   7
   7  -8  -4 5147.71 1207.17   9
   7  -8  -3 333.828 553.949   9
  -7   8   3 1676.24 790.724   7
   7  -8  -2 2925.90 868.749   9
  -7   8   2 5177.76 1209.78   7
   7  -8  -1 571.170 685.113   9
  -7   8   1 953.131 662.501   7
  -7   8   0 6000.47 1184.79   7
   8   0 -15 50605.4 3198.82   2
  -8   0  14 296.248 446.964   1
   8   0 -14 514.759 450.739   2
  -8   0  13-61.1432 416.769   1
   8   0 -13 532.778 475.150   2
   8   0 -12 36948.2 2356.55   2
  -8   0  12 41663.9 2460.56   1
   8   0 -11 14786.5 1408.54   2
  -8   0  11 14921.6 1415.95   1
   8   0 -11 15672.2 1319.13   5
  -8   0  10 8162.78 1012.41   1
   8   0 -10 8258.56 1036.11   2
   8   0 -10 9219.11 1023.83   5
   8   0  -9 1709.08 547.386   2
  -8   0   9 1129.91 486.047   1
   8   0  -9 1417.48 464.295   5
   8   0  -8 226.851 344.480   8
  -8   0   8 123.120 314.808   1
   8   0  -8 336.746 372.298   2
   8   0  -8 291.396 395.594   5
  -8   0   7 3805.66 667.422   1
   8   0  -7 5080.25 714.162   8
  -8   0   7 5124.29 573.785   7
   8   0  -7 3306.80 647.502   2
  -8   0   7 3898.14 512.256   4
   8   0  -6 18631.0 1305.35   8
  -8   0   6 19414.2 1207.69   4
  -8   0   6 18718.4 1091.21   7
  -8   0   6 20050.1 1411.16   1
   8   0  -6 19283.9 1413.92   2
   8   0  -5 6698.72 866.785   8
  -8   0   5 7229.84 755.593   7
  -8   0   5 5474.13 759.500   4
  -8   0   5 6444.27 889.714   1
   8   0  -4 70726.2 2731.81   8
  -8   0   4 74009.9 3022.20   4
  -8   0   4 78520.1 2603.71   7
  -8   0   4 81603.9 3501.68   1
   8   0  -3 3230.82 680.042   8
  -8   0   3 3607.71 681.261   4
  -8   0   3 3740.04 591.892   7
  -8   0   3 3588.84 508.829  10
   8   0  -2 889.803 495.827   8
  -8   0   2 1968.22 561.495   4
  -8   0   2 931.697 356.368   7
   8   0  -1 39458.2 2281.26   8
  -8   0   1 45889.0 2191.13   4
   8   0   0 3155.38 839.834   8
  -8   0   0 2746.35 580.368   4
   8   0   1 1481.69 877.197   8
  -8   0  -1 48.9958 361.612   4
   8   0   2 23479.7 2598.52   8
  -8   0  -2 25911.2 1783.15   4
   8   0   3 5778.85 1246.14   8
  -8   0  -3 5252.31 863.253   4
   8   0   4 14205.0 1673.26   8
  -8   0  -4 17031.9 1529.91   4
   8   0   5 38369.8 2590.78   8
  -8   0  -5 40593.2 2498.40   4
   8   0   6 1281.16 705.929   8
  -8   0  -6 2326.20 654.381   4
  -8   0  -7 4083.70 971.631   4
  -8   0  -8 15982.5 1777.01   4
   8   1 -15 5226.25 1118.77   2
   8  -1 -15 4357.02 1041.75   2
   8  -1 -14 14520.8 1684.78   2
   8   1 -14 15907.6 1772.34   2
  -8   1  14 19151.4 1793.15   1
   8  -1 -13 59835.0 3144.60   2
   8   1 -13 60960.2 3299.55   2
  -8   1  13 62149.3 3062.93   1
  -8  -1  13 62579.4 3405.94   1
   8   1 -12-12.6552 407.675   5
   8   1 -12-819.105 547.871   2
  -8  -1  12-355.235 418.352   1
  -8   1  12-334.782 443.586   1
   8  -1 -12 211.852 393.658   2
   8   1 -11 2210.26 665.234   5
  -8   1  11 1656.35 539.911   1
  -8  -1  11 3432.16 788.437   1
  -8   1  11 1477.69 510.097   7
   8  -1 -11 2124.77 631.165   2
   8   1 -11 3476.15 783.870   2
   8  -1 -10 35712.8 2132.22   2
   8   1 -10 29469.0 1933.62   2
  -8  -1  10 35064.9 2129.05   1
  -8   1  10 35257.3 1808.07   7
   8  -1 -10 35005.6 1840.99   5
   8   1 -10 33097.7 1999.15   5
  -8   1  10 33491.2 1992.97   1
  -8  -1   9 981.915 486.438   1
  -8   1   9 257.400 356.194   1
  -8   1   9 609.789 336.012   7
   8  -1  -9 487.770 427.556   2
   8   1  -9 46.3277 385.064   2
   8  -1  -9 581.268 352.908   5
   8   1  -9 1323.96 537.758   5
   8  -1  -8 26455.2 1738.66   2
  -8  -1   8 28170.6 1755.17   1
   8   1  -8 25906.5 1612.82   2
   8  -1  -8 27183.7 1506.82   8
   8   1  -8 27003.9 1509.40   8
  -8   1   8 26699.4 1436.25   7
  -8   1   8 24551.3 1627.33   1
   8   1  -8 24445.1 1627.51   5
   8  -1  -7-64.8729 339.680   8
   8   1  -7 26.8571 341.591   8
   8  -1  -7 271.367 418.357   2
  -8  -1   7 345.058 414.213   1
  -8   1   7 438.701 328.217   7
   8   1  -7-121.555 271.294   2
   8   1  -7 137.686 310.941   5
  -8   1   7 150.789 323.661   1
   8   1  -6 37264.8 1831.17   2
   8  -1  -6 42132.7 2038.72   8
   8   1  -6 40285.6 1971.98   8
  -8   1   6 42362.5 1803.01   4
  -8  -1   6 44797.4 1899.33   4
  -8   1   6 43410.4 1832.51   7
  -8   1   6 44115.2 2398.07   1
  -8  -1   6 42985.1 2037.53   1
   8  -1  -6 44868.9 1790.72   9
  -8  -1   5 320.092 317.487   1
   8  -1  -5 107.297 402.945   8
   8   1  -5-728.290 480.148   8
  -8   1   5 803.673 503.288   1
  -8   1   5 292.136 369.235   4
  -8   1   5-37.1878 308.614   7
  -8  -1   5 373.973 352.456   4
  -8  -1   4 343.452 381.041  10
   8  -1  -4 645.776 484.408   8
   8   1  -4 16.9319 408.653   8
  -8   1   4-32.6777 328.890   4
  -8   1   4 630.360 413.304   7
  -8  -1   4-29.7449 368.502   4
  -8  -1   4 368.137 286.677   1
   8  -1  -3 36553.1 2162.72   8
   8   1  -3 36437.5 2018.77   8
  -8   1   3 38926.7 1841.90   4
  -8  -1   3 39694.7 2426.78   4
  -8   1   3 39064.0 1959.99   7
  -8  -1   3 41891.2 2091.18   1
  -8  -1   3 38869.0 1597.66  10
   8  -1  -2 26581.2 2025.70   8
   8   1  -2 27445.3 1778.79   8
  -8   1   2 28485.1 1601.25   4
  -8  -1   2 25392.7 1844.95   4
  -8   1   2 24962.8 1553.04   7
  -8  -1   2 25522.4 1805.98   1
   8  -1  -1 2319.66 865.110   8
   8   1  -1 300.119 481.958   8
  -8   1   1 991.876 426.889   4
  -8  -1   1 1260.21 547.888   4
  -8   1   1 1774.57 481.152   7
   8  -1   0 2719.53 1266.43   8
   8   1   0 2460.22 670.608   8
  -8   1   0 2518.54 595.119   4
  -8  -1   0 2726.59 662.811   4
  -8   1  -1 8066.85 999.017   4
  -8  -1  -1 9173.78 1097.57   4
   8  -1   1 9194.83 1577.64   8
   8   1   1 9182.24 1270.08   8
   8  -1   2 19183.5 1966.25   8
   8   1   2 19638.9 1880.95   8
  -8   1  -2 19262.3 1532.33   4
  -8  -1  -2 18322.1 1572.54   4
  -8   1  -3 9650.64 1124.44   4
  -8  -1  -3 8947.05 1158.57   4
   8  -1   3 5133.48 1096.11   8
   8   1   3 7968.89 1501.38   8
   8  -1   4 20446.6 1855.54   8
   8   1   4 23535.2 2369.38   8
  -8   1  -4 19788.1 1694.27   4
  -8  -1  -4 26106.3 1974.34   4
   8  -1   5 13653.0 1564.24   8
  -8   1  -5 16763.2 1605.81   4
  -8  -1  -5 14770.1 1570.84   4
   8   1   5 13155.2 1625.95   8
   8  -1   6 12927.0 1505.61   8
   8   1   6 12748.5 1556.14   8
  -8   1  -6 17449.1 1702.49   4
  -8  -1  -6 16857.1 1745.32   4
  -8   1  -7 47313.9 2897.81   4
  -8  -1  -7 49010.9 3018.29   4
  -8  -1  -8-555.249 533.809   4
   8  -2 -15 50770.8 3169.10   2
   8   2 -15 48203.0 3368.94   2
  -8   2  15 53300.2 3006.10   1
  -8   2  14 306.022 482.896   1
  -8   2  14 334.273 465.049   7
   8  -2 -14 169.233 450.307   2
   8   2 -14 838.830 506.362   2
  -8   2  13 179.134 419.910   7
  -8   2  13-275.346 381.096   1
   8  -2 -13-660.509 557.134   2
   8   2 -13 634.306 621.848   2
   8  -2 -12 35380.9 2346.58   2
  -8   2  12 32790.3 2101.84   1
   8   2 -12 32850.8 2446.91   2
  -8   2  12 37752.9 2190.42   7
   8   2 -12 40126.7 2603.23   5
  -8   2  11 13640.3 1317.29   1
   8  -2 -11 11665.5 1331.82   2
   8   2 -11 12159.9 1413.66   2
  -8   2  11 13619.1 1265.27   7
  -8  -2  11 14373.9 1584.99   1
   8   2 -11 12804.1 1449.30   5
   8   2 -10 8377.70 1140.57   5
   8  -2 -10 8871.01 1123.25   2
  -8   2  10 8603.65 978.985   7
  -8  -2  10 8081.66 1176.01   1
   8   2 -10 5573.35 907.591   2
  -8   2  10 6670.32 929.684   1
   8   2  -9 1108.06 520.935   5
  -8   2   9 1079.25 480.366   1
  -8   2   9 961.778 458.926   7
   8  -2  -9 798.138 413.710   2
   8   2  -9 1204.79 467.189   2
  -8  -2   9 698.325 494.193   1
   8   2  -8 1107.77 558.618   8
  -8  -2   8 91.1407 403.959   1
   8  -2  -8-70.2665 358.841   2
  -8   2   8 156.491 301.088   7
   8   2  -8 820.907 429.134   2
  -8   2   8-101.107 331.156   1
   8   2  -8 276.266 450.637   5
   8  -2  -7 4508.09 647.188   9
  -8  -2   7 3570.92 684.825   1
   8  -2  -7 3988.52 738.854   8
   8   2  -7 3753.98 768.212   8
  -8   2   7 5010.41 712.975   7
   8   2  -7 3897.03 625.600   2
  -8   2   7 3373.17 751.564   1
   8  -2  -7 5594.16 927.734   2
   8   2  -7 3236.24 742.706   5
  -8  -2   6 18722.2 1360.95   1
   8   2  -6 16733.1 1159.92   2
   8  -2  -6 16607.8 1416.98   8
   8   2  -6 15537.0 1472.92   8
  -8  -2   6 14809.1 1148.50   4
  -8   2   6 17902.4 1274.42   7
  -8   2   6 17384.7 1644.02   1
   8   2  -6 15882.7 1370.37   5
   8  -2  -6 18244.5 1252.50   9
   8   2  -5 5078.01 655.911   2
   8  -2  -5 6295.90 1036.64   8
  -8  -2   5 6923.29 894.673  10
  -8  -2   5 6334.10 802.260   4
   8   2  -5 7653.60 1096.85   8
  -8   2   5 5177.72 762.770   7
  -8  -2   5 6645.33 807.216   1
   8   2  -5 6019.42 874.799   5
   8  -2  -4 63776.9 3129.49   8
   8   2  -4 64810.2 3012.90   8
  -8   2   4 63016.8 2202.47   4
  -8  -2   4 62800.6 2579.67   4
  -8   2   4 65448.3 2697.07   7
  -8  -2   4 70893.7 2498.20   1
  -8  -2   4 61519.1 2305.26  10
   8   2  -4 61533.0 2215.56   2
  -8  -2   3 2476.82 477.289   1
   8  -2  -3 3583.00 1059.18   8
   8   2  -3 3211.53 827.021   8
  -8   2   3 2356.47 475.529   4
  -8   2   3 2166.06 689.001   7
  -8  -2   3 3366.32 727.595   4
  -8  -2   2 1455.50 414.689   1
   8  -2  -2 1709.09 1079.25   8
   8   2  -2 769.745 580.899   8
  -8   2   2 1366.80 421.041   4
  -8   2   2 1290.44 496.915   7
  -8  -2   2 1368.16 620.924   4
   8  -2  -1 35027.1 2613.89   8
   8   2  -1 37208.3 2240.17   8
  -8   2   1 38248.8 1896.45   4
  -8  -2   1 37150.8 2584.35   4
  -8   2   1 38645.5 2051.33   7
  -8  -2   1 37275.0 1763.66   1
   8  -2   0 683.016 668.565   8
   8   2   0 1858.03 618.222   8
  -8   2   0 1275.78 509.229   4
  -8  -2   0 1573.96 623.889   4
  -8   2   0 255.692 357.404   7
   8  -2   1 1560.39 750.274   8
   8   2   1-2.72248 465.513   8
  -8   2  -1 136.060 318.388   4
  -8  -2  -1 793.903 604.264   4
   8  -2   2 19245.5 1813.81   8
  -8   2  -2 21184.7 1621.74   4
   8   2   2 20955.3 1838.12   8
  -8  -2  -2 21595.9 1881.75   4
   8  -2   3 6181.21 1142.42   8
   8   2   3 5576.53 1079.35   8
  -8   2  -3 4340.37 825.444   4
  -8  -2  -3 5936.82 1053.94   4
   8  -2   4 14010.7 1577.85   8
  -8   2  -4 13413.4 1399.88   4
  -8  -2  -4 14014.6 1566.34   4
   8   2   4 13748.6 1910.71   8
   8  -2   5 34000.0 2390.67   8
   8   2   5 33909.2 2950.09   8
  -8   2  -5 31372.7 2227.66   4
  -8  -2  -5 37179.3 2614.82   4
   8  -2   6 4275.10 927.903   8
   8   2   6 2012.06 788.602   8
  -8   2  -6 1630.67 681.341   4
  -8  -2  -6 2378.01 782.226   4
   8  -2   7 3433.63 883.563   8
  -8   2  -7 2280.57 692.529   4
  -8  -2  -7 3632.35 964.098   4
  -8  -2  -8 15166.0 1865.16   4
   8   3 -15 6614.73 1386.22   2
  -8   3  15 3471.69 890.604   7
   8   3 -14 13089.8 1944.35   2
   8  -3 -14 14166.0 1630.30   2
  -8   3  14 12851.5 1420.22   1
  -8   3  14 13511.6 1530.34   7
   8  -3 -13 51791.7 3013.18   2
  -8   3  13 52928.4 2734.50   1
   8   3 -13 50104.4 3576.13   2
  -8   3  13 49567.4 2791.12   7
   8   3 -12 675.570 583.214   2
   8   3 -12 158.725 655.462   5
  -8   3  12-31.8749 471.018   7
   8  -3 -12 555.558 503.921   2
  -8   3  12 230.319 344.828   1
   8   3 -11 2070.85 884.299   5
  -8   3  11 1937.93 619.707   1
  -8   3  11 2215.71 627.215   7
   8  -3 -11 1925.61 737.843   2
   8  -3 -10 26699.0 1966.73   2
  -8   3  10 24879.7 1736.32   7
  -8   3  10 24330.2 1728.61   1
   8   3 -10 29843.8 2362.04   5
   8   3  -9 331.318 538.454   5
  -8   3   9 90.9548 362.762   1
   8   3  -9 1512.81 611.741   8
  -8  -3   9 533.403 797.113   1
   8  -3  -9 658.701 477.290   2
  -8   3   9-338.370 358.343   7
   8   3  -8 19802.7 1711.66   8
  -8  -3   8 19344.8 2019.15   1
  -8   3   8 21112.7 1506.45   7
  -8   3   8 20330.5 1677.00   1
   8   3  -8 19391.6 1788.04   5
   8  -3  -8 19585.2 1346.17   9
   8  -3  -8 21243.4 1703.64   2
   8  -3  -7-283.809 395.778   9
  -8  -3   7 1750.45 811.881  10
  -8  -3   7 204.071 517.660   1
   8  -3  -7 149.194 446.147   8
   8   3  -7 259.307 449.650   8
  -8   3   7-100.992 335.678   7
  -8   3   7-580.704 613.599   1
   8   3  -7-602.899 514.098   5
   8  -3  -6 30137.5 2166.83   8
   8   3  -6 28841.6 2107.87   8
  -8  -3   6 34061.6 2255.88   1
  -8   3   6 32065.8 1829.70   7
  -8  -3   6 31951.8 1957.74  10
   8   3  -6 29449.8 2032.08   5
   8  -3  -6 27880.1 1687.39   9
   8  -3  -5 668.463 508.538   9
   8  -3  -5 1903.36 735.686   8
   8   3  -5 133.407 528.283   8
  -8  -3   5 520.217 414.531   1
  -8   3   5-81.7149 359.523   7
  -8  -3   5 999.261 483.651   4
  -8  -3   5 412.668 442.032  10
   8   3  -5 547.306 445.413   5
  -8  -3   4-106.519 331.218   1
   8  -3  -4 948.706 644.904   8
   8   3  -4 1112.76 685.659   8
  -8   3   4-554.613 517.778   7
  -8  -3   4 430.836 410.214   4
  -8  -3   4-77.0411 399.347  10
   8   3  -4-197.806 374.088   5
  -8  -3   3 29803.7 1701.84   1
   8  -3  -3 28071.0 2184.85   8
  -8   3   3 30222.2 1539.08   4
   8   3  -3 28187.4 2474.68   8
  -8  -3   3 32724.6 1951.60   4
  -8   3   3 28988.7 2042.11   7
   8   3  -3 27519.6 1855.43   5
   8  -3  -2 19948.5 1859.80   8
  -8   3   2 22561.3 1398.64   4
   8   3  -2 20522.3 2148.49   8
  -8  -3   2 23127.4 1709.07   4
  -8   3   2 20041.0 1661.27   7
   8   3  -2 19604.3 1579.85   5
   8  -3  -1 1137.14 640.821   8
   8   3  -1 1387.09 803.705   8
  -8   3   1 1367.02 472.813   4
  -8   3   1 472.525 378.119   7
  -8  -3   1 427.069 452.345   4
   8  -3   0 1543.74 716.072   8
   8   3   0 2742.04 912.181   8
  -8   3   0 2516.64 596.894   4
  -8   3   0 1141.44 486.743   7
  -8  -3   0 2057.32 706.403   4
   8  -3   1 5723.81 1042.25   8
   8   3   1 6938.48 1134.50   8
  -8   3  -1 6835.15 918.135   4
  -8   3  -1 5446.52 889.849   7
  -8  -3  -1 5846.13 1110.28   4
   8  -3   2 14675.7 1546.43   8
  -8   3  -2 15017.1 1393.66   4
   8   3   2 12443.3 1463.22   8
  -8  -3  -2 15484.9 1888.29   4
   8  -3   3 6817.97 1138.51   8
   8   3   3 7194.45 1133.74   8
  -8   3  -3 5974.88 930.187   4
  -8  -3  -3 9368.77 1499.60   4
   8  -3   4 17601.2 1773.53   8
  -8   3  -4 17893.4 1666.62   4
   8   3   4 17631.4 1898.22   8
  -8  -3  -4 19540.7 2145.22   4
   8  -3   5 14842.7 1616.00   8
  -8   3  -5 11662.5 1407.85   4
   8   3   5 13815.1 2055.17   8
  -8  -3  -5 13105.9 1801.36   4
   8  -3   6 12431.9 1510.74   8
  -8   3  -6 12271.5 1492.06   4
  -8  -3  -6 11173.4 1715.01   4
   8  -3   7 37675.1 2594.75   8
  -8   3  -7 41757.1 2788.93   4
  -8  -3  -7 38407.9 3218.60   4
  -8   4  14 1822.08 832.688   7
   8  -4 -14 740.408 505.464   2
  -8   4  13-592.537 588.099   7
   8  -4 -13-112.182 428.456   2
   8  -4 -12 26342.0 2098.04   2
  -8   4  12 27634.7 2108.27   7
  -8   4  12 25894.6 1852.03   1
   8   4 -11 11011.0 1793.67   5
   8  -4 -11 10807.3 1315.07   2
  -8   4  11 10231.7 1238.60   7
  -8   4  11 10064.8 1173.25   1
  -8   4  10 5265.50 848.773   1
  -8   4  10 4634.95 852.083   7
   8  -4 -10 6171.01 1025.19   2
  -8  -4  10 4767.32 973.438  10
   8   4  -9 837.677 737.229   5
   8   4  -9 956.085 541.270   8
   8  -4  -9 933.741 518.416   2
  -8   4   9 54.8456 369.290   7
  -8   4   9 1048.52 536.853   1
   8  -4  -9 709.646 453.127   9
   8   4  -8 418.119 658.975   5
   8   4  -8-165.498 436.610   8
   8  -4  -8 139.595 517.512   2
  -8   4   8-285.797 407.714   7
  -8   4   8-128.713 462.112   1
  -8  -4   8-155.273 697.405  10
   8  -4  -8 507.501 382.988   9
   8  -4  -7 1519.20 503.821   9
   8   4  -7 2646.27 885.093   5
   8  -4  -7 2587.73 688.343   8
   8   4  -7 1743.77 586.984   8
  -8   4   7 2032.99 653.144   7
  -8  -4   7 2830.43 867.255  10
   8   4  -6 10276.5 1469.15   5
   8   4  -6 11165.3 1279.22   8
   8  -4  -6 10316.9 1229.07   8
  -8   4   6 11298.9 1206.52   7
  -8  -4   6 12899.5 1267.87   1
  -8  -4   6 9333.52 1091.51  10
   8  -4  -6 10639.8 1149.29   9
   8  -4  -5 5614.37 985.040   8
   8   4  -5 4708.36 849.248   8
   8  -4  -5 5435.94 905.874   9
  -8   4   5 4446.24 839.220   7
  -8  -4   5 6260.40 861.559   1
  -8  -4   5 3701.50 712.779  10
   8   4  -5 3713.61 1011.59   5
   8  -4  -4 41265.4 2499.80   8
   8   4  -4 40377.3 2496.06   8
  -8   4   4 42792.5 2463.32   7
  -8  -4   4 49426.3 2200.66   1
   8   4  -4 38643.8 2582.65   5
   8  -4  -4 40681.4 2301.08   9
   8  -4  -3 1610.88 687.624   8
   8   4  -3 1635.78 671.611   8
  -8   4   3 513.943 564.485   7
  -8  -4   3 2062.14 600.970   4
   8   4  -3 395.523 442.013   5
   8  -4  -2 747.276 594.496   8
   8   4  -2 897.349 668.939   8
  -8   4   2 1320.16 418.415   4
  -8   4   2-140.124 487.679   7
  -8  -4   2 591.661 438.815   4
   8   4  -2 1420.62 616.685   5
   8  -4  -1 24363.7 1958.11   8
  -8   4   1 25027.6 1606.32   4
   8   4  -1 27808.8 2501.33   8
  -8  -4   1 24993.2 1869.49   4
  -8   4   1 24898.9 1904.11   7
   8   4  -1 25425.4 2044.44   5
   8  -4   0 612.447 573.895   8
   8   4   0 1501.68 1093.16   8
  -8   4   0 927.743 457.354   4
  -8   4   0 1238.41 573.072   7
  -8  -4   0 1151.90 533.610   4
   8   4   0 581.923 471.131   5
   8  -4   1 473.698 568.664   8
   8   4   1-374.829 625.664   8
  -8   4  -1 250.349 367.305   4
  -8   4  -1-85.7417 431.267   7
  -8  -4  -1-89.2909 428.628   4
   8   4   1 376.566 568.088   5
   8  -4   2 13900.5 1548.12   8
  -8   4  -2 13143.8 1345.33   4
   8   4   2 14736.9 1741.80   8
  -8  -4  -2 12935.7 1544.88   4
  -8   4  -2 12558.2 1385.91   7
   8  -4   3 3824.81 931.089   8
   8   4   3 3297.81 938.272   8
  -8   4  -3 2879.65 718.875   4
  -8  -4  -3 2347.24 894.256   4
   8  -4   4 9136.98 1356.18   8
   8   4   4 9849.48 1444.79   8
  -8   4  -4 9134.65 1257.58   4
  -8  -4  -4 11591.4 1681.44   4
   8  -4   5 24538.0 2096.48   8
  -8   4  -5 24769.5 2095.79   4
   8   4   5 22730.1 2266.71   8
  -8  -4  -5 27078.8 2560.28   4
   8  -4   6 686.288 607.723   8
  -8   4  -6 882.292 537.240   4
  -8  -4  -6 1154.58 837.075   4
   8  -4   7 2305.66 769.507   8
  -8  -4  -7 2201.56 1046.59   4
   8  -5 -13 35428.3 2581.62   2
  -8   5  13 33841.7 2519.50   7
  -8   5  12-655.457 633.453   7
   8  -5 -12 745.441 559.804   2
  -8  -5  12 1441.40 816.648  10
  -8   5  11 113.826 460.732   7
   8  -5 -11 1.07664 541.607   2
  -8  -5  11 1458.52 729.490  10
  -8   5  10 18798.7 1709.78   7
  -8   5  10 15637.0 1457.87   1
   8  -5 -10 17137.8 1681.04   2
  -8  -5  10 16270.9 1891.61  10
   8  -5 -10 14813.7 1420.31   9
   8   5  -9 93.9002 753.874   5
   8   5  -9-478.673 415.423   8
   8  -5  -9 911.923 629.199   2
  -8   5   9-68.7624 384.423   7
  -8   5   9-416.281 432.391   1
   8  -5  -9 622.509 525.851   9
   8   5  -8 13691.5 1884.18   5
   8   5  -8 9699.90 1203.79   8
  -8   5   8 11823.8 1298.08   7
  -8   5   8 10188.7 1487.07   1
  -8  -5   8 11920.3 1450.55  10
   8  -5  -8 10701.2 1223.06   9
   8  -5  -8 11535.1 1368.44   2
   8  -5  -7 983.611 463.013   9
   8   5  -7 1800.50 832.016   5
   8  -5  -7-34.7072 463.343   8
   8   5  -7-601.379 497.919   8
  -8   5   7 1006.24 601.249   7
  -8  -5   7-516.203 582.348  10
   8  -5  -6 17516.7 1653.74   8
   8   5  -6 17877.1 1624.37   8
  -8   5   6 17804.9 1604.94   7
   8   5  -6 20659.4 2139.14   5
   8  -5  -6 16368.3 1504.73   9
   8  -5  -5 2147.94 684.736   9
   8   5  -5-759.535 601.806   5
   8  -5  -5-224.764 556.406   8
   8   5  -5 1842.41 658.189   8
  -8   5   5 50.3343 441.027   7
   8   5  -4 825.385 672.442   5
   8  -5  -4-145.254 482.286   9
   8  -5  -4 106.076 563.661   8
   8   5  -4 560.813 546.508   8
  -8   5   4 434.525 508.079   7
   8  -5  -3 16947.0 1613.91   8
   8   5  -3 17529.7 1704.09   8
  -8   5   3 19265.3 1943.06   7
   8   5  -3 18572.4 2003.39   5
   8  -5  -3 18609.3 1709.54   9
   8  -5  -2 13462.8 1493.52   8
  -8  -5   2 14597.8 1468.58   4
   8   5  -2 10861.8 1415.92   8
  -8   5   2 13941.1 1628.37   7
   8   5  -2 15435.9 1726.31   5
   8  -5  -2 12541.7 1480.19   9
   8  -5  -1 185.722 505.239   8
   8   5  -1 517.373 629.017   8
  -8   5   1 1188.46 461.497   4
  -8   5   1 810.807 538.690   7
  -8  -5   1 714.222 498.935   4
   8   5  -1 1867.82 799.366   5
   8  -5   0 841.586 619.230   8
   8   5   0 2576.11 959.058   8
  -8   5   0 2095.90 577.652   4
  -8   5   0 3784.55 889.421   7
  -8  -5   0 1748.42 628.598   4
   8   5   0 1340.23 614.409   5
   8  -5   1 3282.50 857.416   8
   8   5   1 5275.87 1408.52   8
  -8   5  -1 4669.82 853.796   4
  -8   5  -1 2308.20 706.562   7
  -8  -5  -1 4367.23 889.587   4
   8  -5   2 8809.80 1302.78   8
   8   5   2 10366.1 1789.54   8
  -8   5  -2 8940.97 1176.01   4
  -8   5  -2 8112.00 1183.21   7
  -8  -5  -2 10469.4 1348.05   4
   8  -5   3 3457.61 902.504   8
   8   5   3 5783.16 1306.32   8
  -8   5  -3 3565.55 830.881   4
  -8  -5  -3 5272.31 1074.22   4
  -8   5  -4 9732.46 1340.07   4
   8   5   4 13828.5 1802.98   8
   8  -5   4 9544.72 1407.65   8
  -8  -5  -4 11079.3 1543.35   4
   8  -5   5 7114.75 1230.10   8
   8   5   5 6812.79 1264.44   8
  -8   5  -5 5634.41 1087.42   4
  -8  -5  -5 8289.96 1420.23   4
  -8  -5  -6 8466.83 1434.57   4
   8  -6 -12 13664.4 1618.84   2
  -8   6  11 6408.38 1136.58   7
   8  -6 -11 5806.08 1089.29   2
   8  -6 -11 4458.55 831.653   9
  -8   6  10 2299.00 822.852   7
   8  -6 -10 2384.99 792.859   2
   8  -6 -10 2604.32 702.994   9
  -8   6   9 97.0272 448.765   7
   8  -6  -9 584.946 506.188   2
  -8  -6   9-898.627 765.363  10
   8  -6  -9 503.386 479.441   9
   8  -6  -8-437.542 506.830   2
  -8   6   8 682.343 529.129   7
  -8   6   8-857.021 708.270   1
   8  -6  -8 306.071 449.801   9
   8   6  -7 175.781 577.715   5
  -8   6   7 1034.98 563.790   7
   8  -6  -7 1113.53 570.352   2
   8  -6  -7 1414.35 592.662   9
   8  -6  -6 4926.59 937.156   9
   8   6  -6 6349.87 1159.06   5
  -8   6   6 6628.96 1155.39   7
   8  -6  -5 2790.92 723.302   9
   8   6  -5 5177.09 1050.16   5
   8  -6  -5 2200.10 737.866   8
   8   6  -5 3366.86 791.059   8
  -8   6   5 2956.91 794.760   7
   8  -6  -4 20338.9 1866.65   8
   8   6  -4 20858.9 1882.06   8
  -8   6   4 23577.1 2109.58   7
   8   6  -4 24267.9 2056.99   5
   8  -6  -4 22397.9 1922.01   9
   8  -6  -3-12.8426 565.925   9
   8   6  -3-409.376 523.833   5
   8  -6  -3 999.556 655.105   8
   8   6  -3 395.286 655.848   8
  -8   6   3 754.797 656.542   7
   8   6  -2 1365.46 574.172   5
   8  -6  -2 1015.06 684.220   9
   8  -6  -2 250.551 552.780   8
   8   6  -2 822.631 616.987   8
  -8   6   2-32.4011 633.970   7
   8  -6  -1 13284.2 1585.03   8
   8   6  -1 12916.2 1644.60   8
  -8   6   1 13166.5 1604.82   7
   8   6  -1 13419.7 1391.45   5
   8  -6  -1 13554.9 1635.53   9
   8  -6   0 2098.41 949.433   9
   8  -6   0-40.9606 521.983   8
   8   6   0 1503.63 976.010   8
  -8   6   0-741.440 497.233   7
   8  -6   1-253.088 547.045   8
   8   6   1-106.620 669.565   8
  -8   6  -1-145.439 400.111   4
  -8   6  -1 489.224 587.499   7
  -8  -6  -1-226.869 553.569   4
   8  -6   2 9594.73 1434.58   8
   8   6   2 9376.70 1871.14   8
  -8   6  -2 6214.48 1035.54   4
  -8   6  -2 7512.98 1249.28   7
  -8  -6  -2 10055.3 1407.27   4
   8  -6   3 1289.41 669.071   8
   8   6   3 851.742 898.273   8
  -8   6  -3 3118.14 839.812   4
  -8  -6  -3 2207.43 862.646   4
   8   6   4 6398.32 1447.05   8
  -8   6  -4 6235.98 1145.24   4
  -8  -6  -4 7400.06 1267.60   4
   8  -7 -10 7725.23 1224.12   2
   8  -7  -9 550.054 525.585   2
   8  -7  -9-1011.24 610.638   9
   8  -7  -8 7516.06 1208.26   2
  -8   7   8 6202.31 1146.43   7
   8  -7  -8 5631.99 1072.41   9
   8  -7  -7-42.8539 467.068   2
  -8   7   7 364.625 517.828   7
   8  -7  -7 304.906 482.087   9
  -8   7   6 8275.41 1295.96   7
   8  -7  -6 9164.15 1310.28   9
   8  -7  -5-74.8683 559.778   9
  -8   7   5 753.308 673.069   7
   8  -7  -4-528.693 747.871   9
   8   7  -4-471.569 506.681   5
   8   7  -4-532.544 630.734   8
  -8   7   4 595.308 674.732   7
   8  -7  -3 8677.26 1328.73   9
   8   7  -3 8964.62 1226.34   5
   8   7  -3 8178.46 1301.77   8
  -8   7   3 7416.99 1518.09   7
   8  -7  -2 7056.84 1261.59   9
   8   7  -2 9126.69 1418.91   8
  -8   7   2 5385.83 1245.97   7
   8  -7  -1-67.6809 610.271   9
   8   7  -1-372.099 582.493   8
  -8   7   1 1045.43 702.143   7
   8  -7   0 1737.76 862.713   9
   8  -7   0 287.374 549.335   8
   8   7   0 1519.63 742.868   8
  -8   7   0 1334.97 719.568   7
   8  -7   1 2961.53 1020.99   9
   8  -7   1 2453.68 801.458   8
   8   7   1 2807.07 1009.55   8
  -8   7  -1 1952.64 770.117   7
  -8   7  -2 3115.12 821.427   4
   9   0 -15 1001.53 616.602   2
   9   0 -14 12974.6 1496.53   2
  -9   0  14 11886.0 1432.20   1
  -9   0  13 178.289 383.029   1
   9   0 -13-584.050 476.253   2
   9   0 -12 10066.3 1249.18   2
  -9   0  12 12264.3 1341.70   1
   9   0 -12 12936.8 1267.14   5
   9   0 -11 9545.01 1168.22   2
  -9   0  11 10020.8 1178.46   1
   9   0 -11 11573.8 1200.74   5
   9   0 -10 1203.24 553.410   2
  -9   0  10 699.128 403.982   1
   9   0 -10 734.381 424.622   5
   9   0  -9 22169.2 1633.90   2
   9   0  -9 21314.0 1551.61   5
  -9   0   9 23344.7 1681.02   1
   9   0  -8 4123.11 690.945   8
  -9   0   8 3024.95 672.134   1
   9   0  -8 3519.56 716.693   2
   9   0  -8 3377.10 732.211   5
  -9   0   7 2942.83 615.519   1
   9   0  -7 3439.66 663.166   8
   9   0  -7 2140.95 596.682   2
   9   0  -6 1539.42 511.703   8
  -9   0   6 1428.87 445.255   4
  -9   0   6 1050.04 464.083   1
   9   0  -5 7460.53 967.568   8
  -9   0   5 8191.45 862.833   7
  -9   0   5 7625.26 988.069   4
  -9   0   5 8303.89 1057.83   1
   9   0  -4 56469.3 2585.43   8
  -9   0   4 57426.6 2836.67   4
  -9   0   4 58854.0 2459.69   7
  -9   0   4 59165.0 3150.73   1
   9   0  -3 7273.81 1027.64   8
  -9   0   3 7289.90 890.944   7
  -9   0   3 6694.86 950.067   4
   9   0  -2 698.030 525.191   8
  -9   0   2-2.26758 358.821   4
   9   0  -1 100722. 3900.17   8
  -9   0   1 105121. 3685.32   4
   9   0   0 31244.1 2307.30   8
  -9   0   0 29449.4 1956.69   4
   9   0   1 30311.9 2458.89   8
  -9   0  -1 30333.1 2015.54   4
  -9   0  -2 12226.0 1349.49   4
   9   0   2 13436.7 2005.44   8
   9   0   3 2720.23 1034.81   8
  -9   0  -3 2751.32 746.969   4
   9   0   4 24167.3 2393.84   8
  -9   0  -4 26739.1 2087.91   4
   9   0   5-285.918 689.834   8
  -9   0  -5 1575.18 677.233   4
   9   0   6 3463.29 1017.32   8
  -9   0  -6 4371.62 957.491   4
  -9   1  15-128.573 443.185   1
   9  -1 -15-556.670 465.217   2
   9   1 -15-382.568 568.075   2
  -9   1  14 1257.72 598.728   1
   9  -1 -14-52.6593 487.894   2
   9   1 -14 199.947 379.091   2
   9   1 -13 506.001 459.440   5
  -9   1  13-415.544 500.709   1
   9  -1 -13-544.003 531.460   2
  -9  -1  13 216.688 393.448   1
   9   1 -13-311.302 500.678   2
   9  -1 -12 10425.0 1273.58   2
  -9   1  12 11757.1 1295.40   1
   9   1 -12 10627.1 1267.13   2
  -9  -1  12 11359.4 1348.96   1
   9   1 -12 11409.0 1279.25   5
   9   1 -11 6055.78 926.299   5
   9  -1 -11 6303.96 1001.51   2
  -9  -1  11 5949.79 966.737   1
   9   1 -11 5377.56 925.574   2
  -9   1  11 5052.71 828.611   1
   9  -1 -10 9063.70 1117.18   2
   9   1 -10 8035.85 1041.13   2
  -9  -1  10 10021.3 1167.90   1
   9  -1 -10 9129.19 1039.35   5
   9   1 -10 8834.95 1076.84   5
  -9   1  10 10411.1 1158.54   1
   9  -1  -9 16401.1 1447.07   2
  -9  -1   9 17541.8 1450.68   1
   9   1  -9 15379.8 1336.38   2
  -9   1   9 17096.8 1220.27   7
  -9   1   9 16263.4 1416.00   1
   9  -1  -9 16904.3 1371.24   5
   9   1  -9 16544.5 1426.01   5
  -9   1   8-69.1681 344.648   1
   9  -1  -8-48.2876 356.082   8
   9   1  -8 21.4984 314.086   8
   9  -1  -8 274.845 344.969   2
  -9   1   8 33.9594 294.178   7
   9   1  -8-52.3090 323.045   2
  -9  -1   8 245.893 326.791   1
   9   1  -8 398.213 333.216   5
   9   1  -7 11871.4 1101.02   2
   9  -1  -7 12567.9 1205.91   8
   9   1  -7 11528.8 1110.21   8
  -9  -1   7 13325.6 1068.18   4
  -9   1   7 13045.7 1028.72   7
  -9   1   7 12253.9 1255.48   1
   9   1  -7 14789.2 1339.36   5
  -9  -1   7 13379.9 1206.53   1
   9  -1  -7 11292.1 1219.62   2
   9  -1  -6 50634.0 2399.75   8
   9   1  -6 44643.8 2224.00   8
  -9  -1   6 50242.1 2176.18   4
  -9   1   6 45837.0 2006.73   7
  -9   1   6 49493.5 2716.16   1
  -9  -1   6 49813.9 2273.46   1
   9   1  -6 47065.9 2210.93   2
  -9  -1   5-297.004 351.592   1
   9  -1  -5 294.022 438.389   8
   9   1  -5 316.908 430.516   8
  -9   1   5 55.2594 489.234   1
  -9   1   5 743.972 503.445   4
  -9   1   5 93.5340 364.658   7
  -9  -1   5 105.052 355.141   4
  -9  -1   5 1071.13 503.567  10
   9  -1  -4 2713.13 704.318   8
   9   1  -4 2208.42 621.252   8
  -9   1   4 1851.39 507.700   4
  -9   1   4 2947.49 678.653   7
  -9  -1   4 2423.14 671.608   4
  -9  -1   4 2155.36 541.721  10
  -9  -1   4 3497.18 649.512   1
   9  -1  -3 88300.0 3548.70   8
   9   1  -3 86680.0 3361.48   8
  -9   1   3 97376.5 3244.38   4
  -9  -1   3 93809.5 4053.87   4
  -9   1   3 90113.2 3341.90   7
  -9  -1   3 92116.1 3361.86   1
   9  -1  -2 27576.4 2099.91   8
   9   1  -2 29588.5 1967.18   8
  -9   1   2 33859.2 1905.38   4
  -9  -1   2 31417.4 2212.37   4
  -9   1   2 31988.6 1918.68   7
  -9  -1   2 31280.4 2195.39   1
   9  -1  -1 28343.2 2307.96   8
   9   1  -1 29231.2 2020.02   8
  -9   1   1 29976.1 1835.42   4
  -9  -1   1 31077.3 2150.43   4
  -9   1   1 31105.1 1879.51   7
   9  -1   0 15575.5 1953.56   8
   9   1   0 15620.3 1578.70   8
  -9   1   0 17532.1 1447.00   4
  -9  -1   0 16757.8 1573.75   4
   9  -1   1 32255.0 3190.48   8
   9   1   1 33645.1 2373.37   8
  -9   1  -1 34053.5 2096.73   4
  -9  -1  -1 33324.5 2233.19   4
   9  -1   2 30225.3 2807.11   8
   9   1   2 34490.0 2574.13   8
  -9   1  -2 33674.8 2148.51   4
  -9  -1  -2 33741.6 2300.44   4
   9  -1   3 6837.12 1348.01   8
   9   1   3 7263.12 1452.11   8
  -9   1  -3 7013.84 1093.32   4
  -9  -1  -3 7121.19 1122.14   4
   9  -1   4 1165.66 798.552   8
  -9   1  -4 155.482 399.094   4
  -9  -1  -4 238.135 467.207   4
   9  -1   5-263.936 670.731   8
   9   1   5 328.839 702.433   8
  -9   1  -5-626.897 606.359   4
  -9  -1  -5 539.288 530.444   4
   9  -1   6 1624.12 775.407   8
   9   1   6 1538.10 925.898   8
  -9   1  -6 1155.04 628.197   4
  -9  -1  -6 1986.44 795.289   4
   9   2 -15-336.577 510.362   2
  -9   2  15 1669.26 626.347   1
   9  -2 -14 10759.8 1433.37   2
  -9   2  14 12971.5 1434.56   1
   9   2 -14 11093.2 1455.03   2
   9   2 -13-395.485 442.327   5
  -9   2  13 243.105 379.727   1
   9  -2 -13-405.649 491.402   2
   9   2 -13-118.629 428.227   2
  -9   2  12 9519.37 1183.33   1
   9  -2 -12 12432.8 1449.12   2
   9   2 -12 12812.5 1420.88   2
  -9   2  12 11738.2 1209.67   7
  -9  -2  12 12363.4 1487.70   1
   9   2 -12 11070.6 1359.01   5
  -9   2  11 9325.85 1044.60   7
  -9  -2  11 10414.1 1311.79   1
   9  -2 -11 9063.06 1184.27   2
   9   2 -11 7596.37 1052.69   2
   9   2 -11 9295.45 1237.65   5
  -9   2  11 8959.21 1096.73   1
   9   2 -10 655.876 538.167   5
  -9  -2  10 569.976 468.905   1
  -9   2  10 953.283 523.225   1
  -9   2  10 498.881 411.984   7
   9  -2 -10 902.851 495.688   2
   9   2 -10 251.127 367.810   2
   9  -2  -9 18680.6 1607.37   2
   9   2  -9 18011.1 1421.33   2
  -9  -2   9 19769.7 1596.83   1
  -9   2   9 17680.9 1337.54   7
  -9   2   9 21814.3 1651.79   1
   9   2  -9 17623.4 1551.66   5
  -9  -2   8 4648.99 799.556   1
   9   2  -8 2309.88 661.044   8
   9  -2  -8 2800.98 678.836   2
  -9   2   8 3935.39 661.416   7
   9   2  -8 2135.92 511.305   2
  -9   2   8 2840.16 631.010   1
   9   2  -8 3601.84 783.190   5
  -9  -2   7 2432.99 555.191   1
   9  -2  -7 2327.25 549.276   9
   9  -2  -7 2168.30 635.667   8
   9   2  -7 1222.33 490.547   8
  -9   2   7 2500.11 543.284   7
   9   2  -7 2565.66 568.964   2
  -9   2   7 1834.34 710.709   1
  -9  -2   7 2868.98 786.453  10
   9   2  -7 2429.60 624.244   5
   9  -2  -6 1374.60 506.764   9
   9  -2  -6-271.500 462.451   8
   9   2  -6 221.147 418.631   8
  -9   2   6 887.441 550.168   1
  -9   2   6 309.335 345.548   7
  -9  -2   6 713.275 438.609   4
  -9  -2   6 1367.01 449.384   1
  -9  -2   6 1629.86 678.507  10
   9   2  -6 1479.53 562.382   5
   9  -2  -5 7522.75 1084.48   8
   9   2  -5 5859.43 936.559   8
  -9   2   5 6265.95 847.021   7
  -9  -2   5 6346.20 868.144   4
   9   2  -5 5786.31 924.566   5
  -9  -2   5 7109.25 912.745  10
  -9  -2   5 6636.19 821.173   1
   9  -2  -4 45731.2 2635.09   8
   9   2  -4 45980.0 2510.70   8
  -9   2   4 47749.4 2102.11   4
  -9  -2   4 47072.3 2378.94   4
  -9   2   4 49708.3 2421.52   7
  -9  -2   4 53096.8 2236.72   1
  -9  -2   4 51002.4 2140.75  10
  -9  -2   3 5956.96 737.627   1
   9  -2  -3 5731.49 1166.55   8
   9   2  -3 5221.59 952.939   8
  -9   2   3 5745.22 750.449   4
  -9   2   3 7296.46 1072.55   7
  -9  -2   3 5693.05 950.835   4
  -9  -2   2 304.196 295.256   1
   9  -2  -2 1008.35 816.461   8
   9   2  -2 631.111 484.647   8
  -9   2   2 110.646 324.719   4
  -9   2   2-118.285 435.313   7
  -9  -2   2 1233.66 662.657   4
   9  -2  -1 89377.7 4941.43   8
   9   2  -1 84740.8 3580.28   8
  -9   2   1 95971.2 3298.21   4
  -9  -2   1 91068.4 4346.74   4
  -9   2   1 85588.5 3404.06   7
   9  -2   0 23090.0 2514.66   8
   9   2   0 30676.1 2184.26   8
  -9   2   0 27930.8 1814.04   4
  -9  -2   0 26990.5 2311.44   4
  -9   2   0 27145.6 1882.13   7
   9  -2   1 25953.9 2468.31   8
   9   2   1 24300.4 1993.66   8
  -9   2  -1 27084.4 1848.98   4
  -9  -2  -1 23110.6 2141.35   4
   9  -2   2 9603.46 1475.00   8
   9   2   2 8035.71 1293.97   8
  -9   2  -2 9178.03 1126.35   4
  -9  -2  -2 9272.05 1345.48   4
   9  -2   3 2704.61 954.107   8
   9   2   3 3753.05 1072.84   8
  -9   2  -3 3847.99 827.247   4
  -9  -2  -3 2511.57 791.078   4
   9  -2   4 17869.7 1898.17   8
   9   2   4 20598.9 2394.54   8
  -9   2  -4 21901.0 1887.71   4
  -9  -2  -4 23737.0 2161.80   4
   9  -2   5 1811.06 835.558   8
  -9   2  -5 1263.87 654.857   4
  -9  -2  -5 137.983 538.984   4
   9  -2   6 2878.38 855.642   8
  -9   2  -6 4220.04 965.810   4
  -9  -2  -6 4873.29 1167.88   4
  -9   3  14 416.252 506.134   7
  -9   3  14 322.542 385.249   1
   9  -3 -14 376.677 511.451   2
  -9   3  13-94.6218 384.387   1
  -9   3  13 404.839 454.708   7
   9  -3 -13 518.790 494.859   2
   9   3 -12 8435.69 1238.83   5
  -9   3  12 8270.48 1075.09   7
   9  -3 -12 8179.64 1187.93   2
  -9   3  12 7767.27 1054.62   1
   9   3 -11 4987.65 1019.98   5
  -9   3  11 4301.75 784.200   1
  -9   3  11 6032.75 898.067   7
   9  -3 -11 5541.37 1008.47   2
   9   3 -10 8262.67 1219.16   5
  -9  -3  10 10427.7 1375.69   1
  -9   3  10 7269.47 976.646   7
   9  -3 -10 6129.85 991.894   2
  -9   3  10 8334.21 1062.19   1
   9  -3  -9 12707.0 1354.47   2
   9   3  -9 11723.3 1470.45   8
  -9   3   9 11682.7 1185.03   7
  -9  -3   9 16642.8 1643.87   1
  -9   3   9 12959.2 1340.77   1
   9   3  -9 12493.2 1421.93   5
   9   3  -8-197.652 492.098   5
   9  -3  -8-1036.46 517.199   9
  -9  -3   8 424.716 467.699   1
   9   3  -8 877.736 649.898   8
   9  -3  -8 407.501 407.947   2
  -9   3   8 302.616 366.973   7
  -9   3   8-509.995 479.200   1
  -9  -3   8 911.949 629.990  10
   9   3  -7 9915.81 1220.39   5
   9  -3  -7 7068.47 898.088   9
   9  -3  -7 10655.6 1231.75   8
  -9  -3   7 8842.25 1099.85   1
   9   3  -7 10235.9 1491.27   8
  -9   3   7 9388.58 1040.15   7
  -9   3   7 6659.63 1218.43   1
  -9  -3   7 8713.27 1254.81  10
   9  -3  -6 37622.9 2394.98   8
   9   3  -6 37481.9 2751.75   8
  -9  -3   6 40011.4 2165.94   1
  -9   3   6 36775.5 2045.63   7
  -9  -3   6 37868.8 2223.41  10
   9   3  -6 37737.8 2290.92   5
   9  -3  -6 36774.4 2047.68   9
   9  -3  -5 1471.10 606.109   9
   9  -3  -5 1623.26 735.277   8
  -9  -3   5 226.131 341.731   1
   9   3  -5 29.4776 705.046   8
  -9   3   5-242.043 424.164   7
  -9  -3   5 284.631 345.438   4
  -9  -3   5-492.552 571.893  10
   9   3  -5 502.510 444.752   5
   9  -3  -4 2767.44 931.113   8
   9   3  -4 1228.24 719.330   8
  -9   3   4 2547.83 690.037   7
  -9  -3   4 2191.78 596.454   4
  -9  -3   4 2050.62 503.110   1
   9   3  -4 1656.39 556.018   5
   9  -3  -3 69775.1 4073.35   8
   9   3  -3 69693.9 3564.88   8
  -9   3   3 75502.4 2690.53   4
  -9  -3   3 72599.1 3111.05   4
  -9   3   3 69191.8 3265.80   7
   9   3  -3 70888.5 3131.48   5
   9  -3  -2 21383.3 2279.16   8
  -9   3   2 24862.0 1592.14   4
   9   3  -2 26943.8 2163.46   8
  -9  -3   2 27066.2 1971.47   4
  -9   3   2 23870.9 1952.15   7
   9  -3  -1 23979.1 2296.20   8
  -9   3   1 25319.5 1672.70   4
   9   3  -1 24917.5 2086.26   8
  -9  -3   1 24109.8 1989.09   4
  -9   3   1 23398.6 1870.06   7
  -9   3   0 13883.5 1304.88   4
   9  -3   0 11188.9 1604.47   8
  -9  -3   0 16681.3 1781.47   4
   9   3   0 11736.9 1401.57   8
  -9   3   0 11493.3 1306.81   7
   9  -3   1 27946.1 2362.14   8
  -9   3  -1 27321.0 1885.22   4
   9   3   1 26770.5 2160.81   8
  -9  -3  -1 31392.4 2605.39   4
  -9   3  -1 26744.8 1993.59   7
   9  -3   2 28387.5 2370.63   8
  -9   3  -2 27684.2 1989.45   4
   9   3   2 30068.8 2325.13   8
  -9  -3  -2 34722.6 2918.00   4
   9  -3   3 6935.37 1247.20   8
   9   3   3 8021.03 1294.92   8
  -9   3  -3 3400.56 759.436   4
  -9  -3  -3 6036.45 1381.85   4
   9  -3   4 655.695 650.331   8
   9   3   4 113.076 604.514   8
  -9   3  -4-485.110 516.875   4
  -9  -3  -4-615.391 938.414   4
   9  -3   5 14.6168 499.962   8
   9   3   5 785.964 1160.50   8
  -9   3  -5-1.14579 526.998   4
  -9  -3  -5 158.617 690.570   4
   9  -3   6 2504.72 811.080   8
  -9   4  14 5503.38 1040.42   7
  -9   4  13-640.054 666.957   7
   9  -4 -13 224.757 609.507   2
  -9   4  13 203.216 425.132   1
   9   4 -12 5695.20 1194.22   5
  -9   4  12 8334.75 1146.25   7
   9  -4 -12 8532.03 1271.49   2
  -9   4  12 9232.76 1167.11   1
   9   4 -11 6714.52 1201.39   5
  -9   4  11 6980.46 1020.26   1
  -9   4  11 6060.88 994.228   7
   9  -4 -11 5750.93 1056.32   2
  -9  -4  11 5863.65 1130.92  10
   9   4 -10 608.225 612.918   5
  -9   4  10-317.668 438.504   1
  -9   4  10 1483.28 604.367   7
   9  -4 -10 84.3870 374.157   2
  -9  -4  10 2462.19 945.265  10
   9  -4  -9 17788.2 1702.80   2
   9   4  -9 12046.9 1559.59   8
  -9   4   9 12531.4 1327.20   7
  -9   4   9 15479.2 1542.22   1
  -9  -4   9 13795.7 1601.29  10
   9   4  -9 13686.1 1662.16   5
   9  -4  -8 2991.52 726.184   9
   9   4  -8 2155.67 760.122   5
   9   4  -8 886.250 503.868   8
   9  -4  -8 566.986 546.183   2
  -9   4   8 2040.43 585.162   7
  -9   4   8 958.544 619.340   1
  -9  -4   8 1721.70 751.323  10
   9   4  -7 1240.91 577.295   5
   9  -4  -7 765.361 415.788   9
   9  -4  -7 2175.04 698.928   8
   9   4  -7 36.7733 585.307   8
  -9   4   7 1559.72 555.928   7
  -9  -4   7 1681.51 825.130   1
  -9  -4   7 378.269 555.017  10
   9   4  -6 349.769 425.961   5
   9  -4  -6 26.4436 509.055   9
   9  -4  -6 734.751 673.266   8
   9   4  -6 866.481 603.732   8
  -9  -4   6 663.245 635.159   1
  -9   4   6 1302.17 553.584   7
  -9  -4   6 687.264 510.820  10
   9  -4  -5 6137.93 969.484   9
   9  -4  -5 3732.68 1061.30   8
   9   4  -5 4766.11 1177.62   8
  -9   4   5 4565.91 846.331   7
   9   4  -5 3240.16 853.820   5
   9  -4  -4 28742.9 2479.71   8
   9   4  -4 31971.0 2745.19   8
  -9  -4   4 32895.5 2083.40   4
  -9   4   4 35765.3 2308.87   7
   9   4  -4 35685.0 2336.65   5
   9  -4  -4 36594.6 2292.85   9
   9  -4  -3 4086.83 1034.11   8
   9   4  -3 6172.99 1451.86   8
  -9   4   3 5152.44 1036.84   7
  -9  -4   3 6595.27 1000.31   4
   9   4  -3 5681.01 982.724   5
   9  -4  -2 1343.61 846.211   8
   9   4  -2 341.018 817.370   8
  -9   4   2 488.924 280.231   4
  -9   4   2 112.603 513.154   7
  -9  -4   2 797.658 600.862   4
   9   4  -2-284.250 445.122   5
   9  -4  -1 61094.2 3454.73   8
  -9   4   1 65903.6 2803.10   4
   9   4  -1 62999.7 3785.24   8
  -9  -4   1 69517.8 3307.98   4
  -9   4   1 59978.0 3213.98   7
   9   4  -1 64077.2 3169.50   5
   9  -4   0 18739.2 1950.30   8
  -9   4   0 22943.7 1713.24   4
   9   4   0 22539.6 2202.94   8
  -9  -4   0 23712.1 1988.10   4
  -9   4   0 21004.0 1855.62   7
   9   4   0 22839.5 1873.32   5
   9  -4   1 19499.2 1957.37   8
  -9   4  -1 16418.8 1537.49   4
   9   4   1 19958.3 2022.72   8
  -9  -4  -1 21607.7 2010.53   4
  -9   4  -1 20122.9 1821.61   7
   9   4   1 18694.8 1754.84   5
   9  -4   2 6932.14 1268.84   8
   9   4   2 7121.01 1236.48   8
  -9   4  -2 5828.83 1030.61   4
  -9  -4  -2 9481.86 1397.90   4
   9  -4   3 2445.35 760.798   8
   9   4   3 1926.61 704.994   8
  -9   4  -3 2356.17 802.398   4
  -9  -4  -3 1866.20 798.824   4
   9  -4   4 15762.5 1800.80   8
  -9   4  -4 15869.1 1680.83   4
   9   4   4 17713.1 1952.19   8
  -9  -4  -4 17571.3 2057.32   4
   9  -4   5 373.664 552.620   8
   9   4   5 1984.75 938.854   8
  -9  -4  -5 1516.10 854.002   4
  -9   5  12 6835.31 1118.09   7
   9  -5 -12 4423.34 983.183   2
  -9  -5  12 5808.73 1120.64  10
  -9   5  11 4335.80 842.364   1
  -9   5  11 3779.26 874.478   7
   9  -5 -11 3673.27 897.706   2
  -9  -5  11 4370.39 1095.72  10
   9   5 -10 4910.27 1287.11   5
  -9   5  10 3338.61 756.492   1
  -9   5  10 3378.07 827.104   7
   9  -5 -10 5459.57 1008.90   2
  -9  -5  10 5085.63 1162.08  10
   9   5  -9 8026.22 1565.22   5
   9   5  -9 7121.01 1125.15   8
   9  -5  -9 8330.50 1228.66   2
  -9   5   9 8689.95 1202.34   7
  -9   5   9 8908.57 1291.50   1
  -9  -5   9 10460.5 1497.58  10
   9  -5  -9 7248.85 1050.34   9
   9   5  -8-383.481 761.733   5
  -9  -5   8 652.613 634.841  10
   9   5  -8 667.355 594.988   8
   9  -5  -8 598.016 526.499   2
  -9   5   8 249.269 398.005   7
  -9   5   8 677.912 635.348   1
   9  -5  -8-21.1853 408.750   9
   9  -5  -7 4844.90 866.553   9
   9   5  -7 4896.60 1151.11   5
   9  -5  -7 6165.06 1191.48   8
   9   5  -7 4362.85 940.226   8
  -9   5   7 4949.84 861.625   7
   9  -5  -6 27276.0 2322.15   8
   9   5  -6 22146.1 2005.90   8
  -9   5   6 24436.1 1914.33   7
   9   5  -6 22250.9 2295.70   5
   9  -5  -6 20130.7 1697.96   9
   9   5  -5 487.288 628.451   5
   9  -5  -5 1905.69 695.961   9
   9  -5  -5 30.1726 635.854   8
   9   5  -5 48.6576 496.033   8
  -9   5   5-434.685 484.857   7
   9   5  -4-516.577 629.297   5
   9  -5  -4 2045.29 830.390   9
   9  -5  -4 955.933 726.028   8
   9   5  -4 970.585 732.543   8
  -9   5   4 167.298 503.315   7
   9  -5  -3 48369.5 3062.59   8
   9   5  -3 43188.7 3131.78   8
  -9   5   3 45144.3 2941.15   7
   9   5  -3 46471.1 3298.88   5
   9  -5  -3 41284.9 2610.61   9
   9  -5  -2 18315.9 1902.61   8
   9   5  -2 18483.2 2244.90   8
  -9  -5   2 18822.1 1720.41   4
  -9   5   2 17551.3 1921.09   7
   9   5  -2 18194.8 2122.28   5
   9  -5  -2 16980.7 1759.18   9
   9  -5  -1 14949.7 1726.50   8
  -9  -5   1 13443.5 1509.56   4
   9   5  -1 18303.9 2448.76   8
  -9   5   1 13464.6 1656.91   7
   9   5  -1 18201.0 2162.69   5
  -9   5   0 8856.94 1117.15   4
   9  -5   0 6311.86 1213.36   8
   9   5   0 7952.36 1656.30   8
  -9   5   0 6754.26 1154.68   7
  -9  -5   0 7577.79 1138.82   4
   9  -5   1 19149.5 1988.68   8
  -9   5  -1 19389.8 1688.05   4
   9   5   1 19899.8 2290.63   8
  -9  -5  -1 21251.1 1948.08   4
  -9   5  -1 19114.2 1877.11   7
   9  -5   2 16799.1 1834.63   8
  -9   5  -2 18400.9 1717.46   4
   9   5   2 22519.5 2276.16   8
  -9  -5  -2 20388.7 1967.38   4
   9  -5   3 3340.84 901.666   8
   9   5   3 4801.65 1162.37   8
  -9   5  -3 2316.17 660.612   4
  -9  -5  -3 3025.67 932.662   4
   9   5   4-388.939 759.675   8
  -9  -5  -4-347.353 732.528   4
   9  -6 -11 4478.55 948.398   2
  -9   6  10 149.389 448.766   7
   9  -6 -10 761.819 596.911   2
  -9  -6  10 466.518 859.236  10
   9  -6 -10 455.544 471.726   9
   9   6  -9 11441.4 2074.46   5
   9   6  -9 8694.66 1278.16   8
  -9   6   9 8290.56 1280.97   7
   9  -6  -9 6876.33 1154.86   2
  -9   6   9 8082.59 1249.06   1
   9  -6  -9 6045.68 1043.16   9
   9   6  -8 489.415 884.358   5
   9   6  -8 1047.02 527.745   8
   9  -6  -8 1788.95 766.067   2
  -9   6   8 696.086 467.611   7
  -9   6   8-255.177 559.807   1
   9  -6  -8 1739.19 665.351   9
   9   6  -7 800.849 615.152   8
  -9   6   7 575.218 471.719   7
   9  -6  -7 459.548 559.569   9
   9  -6  -6-1003.75 613.253   9
   9   6  -6 283.359 715.756   5
   9  -6  -6-741.469 641.733   8
   9   6  -6 556.868 667.309   8
  -9   6   6 722.925 612.873   7
   9  -6  -5 2557.16 739.115   9
   9   6  -5 239.065 737.499   5
   9  -6  -5 2428.98 950.493   8
   9   6  -5 2981.83 927.116   8
  -9   6   5 3703.03 899.050   7
   9  -6  -4 23140.3 2214.45   8
   9   6  -4 17293.3 1870.11   8
  -9   6   4 22465.1 2072.91   7
   9   6  -4 20608.5 2256.95   5
   9  -6  -4 16855.7 1741.18   9
   9   6  -3 3721.28 1050.74   5
   9  -6  -3 2718.59 877.092   9
   9  -6  -3 3194.32 930.873   8
   9   6  -3 2828.87 922.891   8
  -9   6   3 3905.81 1032.74   7
   9   6  -2 1137.70 682.784   5
   9  -6  -2 1047.66 723.137   9
   9  -6  -2-662.175 707.847   8
   9   6  -2-725.839 743.043   8
  -9   6   2 32.8646 649.012   7
   9  -6  -1 35559.9 2709.20   8
   9   6  -1 36131.1 3169.72   8
  -9   6   1 34798.0 2794.32   7
   9  -6  -1 35233.4 2672.66   9
   9  -6   0 13724.0 1772.74   8
  -9  -6   0 14533.7 1656.67   4
   9   6   0 16112.0 2380.84   8
  -9   6   0 14461.0 1782.56   7
   9  -6   0 14139.3 1814.65   9
   9  -6   1 9635.17 1489.45   8
  -9  -6  -1 11344.1 1494.40   4
   9   6   1 11846.7 2093.79   8
  -9   6  -1 9643.23 1257.46   4
  -9   6  -1 11214.4 1575.59   7
   9   6   2 3459.20 1195.40   8
  -9   6  -2 4231.57 916.483   4
  -9  -6  -2 3192.20 883.093   4
   9   7  -8 87.2892 462.657   8
   9  -7  -8 233.873 587.864   2
   9  -7  -8-501.624 622.844   9
   9   7  -7 1667.22 759.020   8
   9  -7  -7 1200.10 699.586   2
   9  -7  -7 3625.57 942.595   9
   9   7  -6 11796.8 1788.55   5
   9   7  -6 14120.9 1729.24   8
  -9   7   6 13004.4 1652.90   7
   9  -7  -6 13545.8 1644.61   9
   9  -7  -5-99.1752 617.732   9
   9   7  -5 1006.42 613.269   5
   9   7  -5-494.674 603.491   8
  -9   7   5-47.9770 593.474   7
   9  -7  -4 504.426 604.107   9
   9   7  -4 115.607 628.627   5
   9   7  -4 399.835 596.870   8
  -9   7   4-714.300 748.791   7
   9   7  -3 21381.8 2258.18   8
  -9   7   3 24517.6 2493.95   7
   9  -7  -3 22485.6 2148.64   9
   9  -7  -2 11484.3 1707.84   8
  10   0 -15 4203.81 893.816   2
 -10   0  14 3532.19 852.415   1
  10   0 -14 2025.20 652.459   2
  10   0 -13 942.307 474.930   2
 -10   0  13 188.117 402.062   1
  10   0 -12 27573.2 2054.26   2
 -10   0  12 24933.4 1938.74   1
  10   0 -12 28094.3 1917.33   5
 -10   0  11 6566.44 1009.36   1
  10   0 -11 6912.49 1039.13   2
  10   0 -11 5355.27 866.999   5
 -10   0  10 10874.1 1235.64   1
  10   0 -10 9898.91 1193.26   2
  10   0 -10 8663.68 1088.30   5
  10   0  -9 88663.4 3468.69   2
  10   0  -9 95601.7 3574.43   5
 -10   0   9 100300. 3657.13   1
  10   0  -8 4217.98 774.233   8
 -10   0   8 2329.32 627.042   1
  10   0  -8 3584.15 721.753   2
 -10   0   7 462.759 422.201   1
  10   0  -7-248.704 346.474   8
  10   0  -7 516.006 390.812   2
 -10   0   6 79869.0 2981.35   4
 -10   0   6 82553.7 3255.39   1
  10   0  -5 21280.7 1661.88   8
 -10   0   5 23377.6 1825.77   4
 -10   0   5 21756.2 1753.60   1
  10   0  -4 21600.8 1722.51   8
 -10   0   4 22864.3 1972.09   4
 -10   0   4 22262.4 1987.05   1
  10   0  -3-529.276 588.056   8
 -10   0   3 287.172 443.712   1
 -10   0   3-176.515 406.057   4
  10   0  -2 589.393 592.474   8
 -10   0   2-193.222 505.639   4
  10   0  -1 1094.99 665.924   8
 -10   0   1-356.341 387.564   4
 -10   0   0 12340.0 1397.40   4
  10   0   0 9627.62 1397.19   8
  10   0   1 9886.46 1541.16   8
 -10   0  -1 7188.93 1134.27   4
  10   0   2 33654.1 2962.31   8
 -10   0  -2 29769.7 2236.56   4
  10   0   3-702.835 1416.96   8
 -10   0  -3-374.416 590.978   4
  10   0   4-335.060 895.181   8
 -10   0  -4 690.488 498.982   4
  10   0   5 23817.9 2565.70   8
 -10   0  -5 30555.2 2458.16   4
  10   0   6-405.503 640.648   8
  10   1 -15-529.819 494.930   2
  10  -1 -14 13235.5 1569.51   2
  10   1 -14 11575.3 1427.89   2
 -10   1  14 10282.7 1335.56   1
 -10  -1  14 10597.8 1377.92   1
  10   1 -13-466.936 567.685   5
 -10   1  13-213.640 421.830   1
  10  -1 -13 176.770 427.098   2
  10   1 -13-519.589 495.443   2
 -10  -1  13 8.50929 461.041   1
  10   1 -12 6241.62 997.819   5
 -10   1  12 5646.65 967.762   1
  10  -1 -12 4446.62 915.953   2
  10   1 -12 4848.61 893.374   2
 -10  -1  12 6254.57 1050.71   1
  10  -1 -11 28212.4 2078.05   2
  10   1 -11 25075.6 1886.08   2
 -10  -1  11 32625.6 2163.41   1
  10  -1 -11 32531.3 1977.58   5
  10   1 -11 26146.4 1916.01   5
 -10   1  11 30175.2 2077.57   1
  10  -1 -10 12232.8 1340.29   2
  10   1 -10 15017.7 1406.51   2
 -10  -1  10 15846.6 1483.60   1
  10  -1 -10 14194.1 1342.91   5
  10   1 -10 13922.2 1418.61   5
 -10   1  10 12248.3 1293.88   1
 -10   1   9 4481.30 822.729   1
  10  -1  -9 5234.39 928.602   2
  10   1  -9 4210.54 780.841   2
 -10  -1   9 5298.89 852.220   1
  10   1  -9 3835.14 793.752   5
  10   1  -8 33878.4 1978.91   2
  10  -1  -8 33760.9 1971.89   8
  10   1  -8 36843.7 2045.49   8
 -10   1   8 38978.5 2262.45   1
  10   1  -8 34515.7 2158.92   5
 -10  -1   8 38404.0 2149.28   1
  10  -1  -8 33587.2 2165.09   2
  10   1  -7 74288.0 2942.79   2
  10  -1  -7 73850.9 3041.99   8
  10   1  -7 69762.8 2955.09   8
 -10  -1   7 75957.8 2794.01   4
 -10   1   7 79269.5 3354.10   1
  10   1  -7 80516.7 3340.76   5
 -10  -1   7 80058.8 3098.45   1
  10  -1  -7 78514.9 3403.92   2
  10  -1  -6 3701.59 819.226   8
  10   1  -6 4618.67 821.539   8
 -10  -1   6 4255.60 745.278   1
 -10   1   6 5516.66 769.664   7
  10   1  -6 4305.24 753.857   2
 -10  -1   6 5801.56 855.734   4
 -10   1   6 4298.97 919.231   1
 -10  -1   6 5181.32 913.740  10
 -10  -1   5 2284.80 586.668   1
  10  -1  -5 1425.46 623.880   8
  10   1  -5 567.923 510.108   8
 -10   1   5 129.590 424.213   4
 -10   1   5 812.597 432.847   7
 -10  -1   5 945.119 527.586   4
 -10   1   5 2138.45 793.333   1
  10  -1  -4 33963.2 2264.99   8
  10   1  -4 35386.7 2197.95   8
 -10   1   4 37577.0 2186.83   4
 -10  -1   4 38545.6 2407.20   4
 -10   1   4 34237.3 2011.14   7
 -10  -1   4 37903.3 2103.43   1
  10  -1  -3 428.685 493.776   8
  10   1  -3 1160.30 578.059   8
 -10   1   3 1248.35 481.055   4
 -10   1   3 1173.97 562.481   7
 -10  -1   3 1060.37 765.295   4
 -10  -1   3-14.3683 393.081   1
  10  -1  -2 29121.3 2251.83   8
  10   1  -2 24458.0 1923.23   8
 -10   1   2 31690.7 2011.35   4
 -10  -1   2 27406.5 2296.97   4
 -10   1   2 26644.1 1951.69   7
 -10  -1   2 29285.7 2107.74   1
  10  -1  -1 516.502 619.639   8
  10   1  -1 1055.00 692.244   8
 -10   1   1 669.095 440.081   4
 -10  -1   1 889.920 476.585   1
 -10  -1   1 1048.80 678.429   4
  10  -1   0 24020.4 2392.92   8
  10   1   0 21117.6 1912.73   8
 -10   1   0 22520.3 1774.03   4
 -10  -1   0 25095.5 2100.49   4
  10  -1   1-523.008 892.155   8
  10   1   1 861.464 630.034   8
 -10   1  -1-119.616 389.179   4
 -10  -1  -1 46.3653 478.929   4
  10  -1   2 722.673 1238.32   8
  10   1   2 2432.64 1001.76   8
 -10   1  -2 2149.59 710.803   4
 -10  -1  -2 2936.85 842.145   4
  10  -1   3 25295.2 2758.79   8
  10   1   3 25825.9 2594.80   8
 -10   1  -3 27809.6 2171.73   4
 -10  -1  -3 26354.8 2243.61   4
 -10   1  -4 10896.1 1435.76   4
  10  -1   4 10674.9 1782.57   8
  10   1   4 10594.0 2123.45   8
 -10  -1  -4 8519.07 1368.73   4
  10  -1   5 1464.78 763.565   8
  10   1   5 1115.58 1043.12   8
  10   2 -15 3234.66 870.800   2
  10   2 -14 2196.98 737.288   5
 -10   2  14 1875.54 609.815   1
  10  -2 -14 2669.49 752.053   2
  10   2 -14 2033.79 631.237   2
  10   2 -13 172.811 410.298   5
 -10   2  13 228.025 387.385   1
 -10  -2  13 361.113 531.821   1
  10  -2 -13 742.115 513.852   2
  10   2 -13 57.2487 381.044   2
 -10   2  12 23169.8 1863.02   1
  10  -2 -12 21917.7 1915.75   2
  10   2 -12 22545.3 1800.56   2
 -10  -2  12 24519.5 2009.22   1
  10   2 -12 21229.9 1877.24   5
  10   2 -11 3203.94 807.119   5
 -10  -2  11 5317.63 953.396   1
 -10   2  11 5885.79 953.154   1
  10  -2 -11 5291.45 943.006   2
  10   2 -10 9392.26 1186.42   5
 -10   2  10 6904.09 1042.62   1
 -10   2  10 7952.12 965.314   7
  10  -2 -10 8438.84 1195.87   2
 -10  -2  10 7643.12 1093.92   1
  10  -2  -9 79584.0 3512.45   2
 -10  -2   9 91819.4 3533.39   1
 -10   2   9 83265.3 3026.68   7
 -10   2   9 84619.4 3489.08   1
  10   2  -9 85813.2 3551.97   5
 -10  -2   8 3977.42 716.561   1
  10   2  -8 1861.81 563.697   8
  10  -2  -8 3556.09 809.261   2
 -10   2   8 2633.33 581.901   7
 -10  -2   8 5247.40 960.508  10
 -10   2   8 4129.30 841.855   1
  10   2  -8 3440.79 754.430   5
  10  -2  -7-116.800 404.926   8
  10   2  -7-108.249 497.062   8
 -10   2   7 196.320 345.193   7
 -10   2   7 71.9477 564.662   1
 -10  -2   7-86.2105 368.255   1
 -10  -2   7 1471.04 731.436  10
  10   2  -7 1035.62 532.478   5
  10  -2  -6 67643.0 3064.84   8
  10   2  -6 60631.3 2921.19   8
 -10  -2   6 66235.2 2787.24   4
 -10   2   6 68436.8 2757.24   7
 -10   2   6 69318.4 3689.96   1
 -10  -2   6 63968.3 3003.01  10
  10   2  -6 71401.1 3172.62   5
  10  -2  -6 66586.3 2725.60   9
 -10  -2   6 68985.8 2815.19   1
  10  -2  -5 22364.0 1838.92   8
  10   2  -5 22474.7 1779.89   8
 -10  -2   5 20477.7 1591.90   4
 -10   2   5 19081.2 1498.39   7
 -10  -2   5 21425.4 1566.66  10
 -10  -2   5 20138.2 1462.56   1
  10  -2  -4 20966.5 1875.44   8
  10   2  -4 19695.0 1721.58   8
 -10   2   4 19732.4 1484.96   4
 -10  -2   4 20795.1 1705.07   4
 -10   2   4 16859.8 1500.86   7
 -10  -2   4 20343.1 1439.25   1
 -10  -2   3-24.1039 251.243   1
  10  -2  -3-210.374 688.534   8
  10   2  -3-87.2791 504.908   8
 -10   2   3 176.705 335.331   4
 -10   2   3-404.959 504.096   7
 -10  -2   3-274.244 456.670   4
  10  -2  -2-245.059 588.004   8
  10   2  -2 468.948 465.680   8
 -10   2   2 107.705 321.947   4
 -10   2   2 50.7248 485.051   7
 -10  -2   2 769.746 506.264   4
  10  -2  -1-315.078 787.255   8
  10   2  -1-521.611 519.183   8
 -10   2   1-116.799 352.723   4
 -10   2   1-595.796 552.813   7
 -10  -2   1 1310.78 685.058   4
 -10   2   0 8577.40 1127.50   4
  10  -2   0 9100.59 1897.64   8
  10   2   0 10365.4 1386.68   8
 -10  -2   0 11075.5 1618.53   4
  10  -2   1 6589.14 1692.82   8
  10   2   1 7079.84 1213.58   8
 -10   2  -1 8237.34 1158.60   4
 -10  -2  -1 7971.55 1406.34   4
  10   2   2 30646.3 2493.74   8
 -10   2  -2 27836.4 2098.00   4
 -10  -2  -2 33634.9 2760.96   4
  10  -2   3 1572.52 875.175   8
  10   2   3 425.970 645.001   8
 -10   2  -3 117.903 457.298   4
 -10  -2  -3 787.619 653.170   4
  10  -2   4 50.3954 681.508   8
  10   2   4 584.151 978.061   8
 -10   2  -4 90.9996 497.168   4
 -10  -2  -4-533.840 585.568   4
  10  -2   5 24721.9 2409.20   8
  10   2   5 23651.7 3176.86   8
 -10   3  14 8647.17 1213.88   1
  10   3 -13 47.1175 492.625   5
  10  -3 -13-1005.39 557.374   2
 -10   3  13 347.042 426.333   1
  10   3 -12 4584.46 971.290   5
 -10   3  12 4888.50 872.069   7
 -10   3  12 5082.11 926.023   1
  10  -3 -12 4011.28 932.263   2
  10  -3 -11 25273.6 2050.10   2
 -10   3  11 25895.2 1848.86   7
 -10  -3  11 27692.4 2155.63   1
 -10   3  11 23800.9 1862.97   1
  10   3 -11 23634.2 2011.44   5
  10  -3 -10 10576.7 1327.01   2
 -10   3  10 10754.3 1205.61   7
 -10  -3  10 14454.4 1491.47   1
 -10   3  10 10435.5 1293.76   1
 -10  -3  10 13244.5 1427.14  10
  10   3 -10 10383.5 1348.01   5
  10   3  -9 3311.45 855.069   5
  10   3  -9 4487.67 929.180   8
 -10  -3   9 3535.97 784.417   1
  10  -3  -9 3404.01 851.686   2
 -10   3   9 3117.67 711.559   7
 -10   3   9 4755.53 942.269   1
  10   3  -8 27383.0 2086.32   8
 -10  -3   8 34217.7 2161.91   1
 -10   3   8 27891.8 1842.38   7
 -10   3   8 25797.8 2158.01   1
 -10  -3   8 27985.6 2064.38  10
  10   3  -8 28003.9 2094.34   5
  10  -3  -8 30700.3 2269.14   2
  10  -3  -7 61157.2 2953.67   8
  10   3  -7 54598.8 3044.70   8
 -10  -3   7 61356.3 2792.56   1
 -10   3   7 57503.6 2653.14   7
 -10   3   7 56273.3 3619.60   1
 -10  -3   7 57988.6 3088.28  10
  10   3  -7 63876.1 3094.79   5
  10  -3  -7 55465.4 2554.18   9
  10  -3  -6 5091.06 882.738   9
  10  -3  -6 4840.43 979.110   8
  10   3  -6 4390.88 949.135   8
 -10  -3   6 4888.32 789.665   1
 -10   3   6 4556.03 815.859   7
 -10  -3   6 4148.76 837.122  10
  10   3  -6 3289.66 762.007   5
  10  -3  -5 971.111 578.352   9
 -10  -3   5 778.848 416.029   1
  10  -3  -5 1809.85 812.245   8
  10   3  -5 428.530 572.012   8
 -10   3   5 990.214 474.362   7
 -10  -3   5 886.255 518.290   4
  10   3  -5 413.387 455.158   5
  10  -3  -4 30813.7 2427.23   8
  10   3  -4 28715.7 2238.25   8
 -10  -3   4 26986.7 1939.42   4
 -10   3   4 28805.6 2015.69   7
  10   3  -4 28683.2 2050.74   5
  10  -3  -3 223.781 624.088   8
  10   3  -3 574.791 528.525   8
 -10   3   3 1641.69 655.199   7
 -10  -3   3 1283.66 590.537   4
  10   3  -3 625.765 467.301   5
  10  -3  -2 22190.6 2474.39   8
  10   3  -2 20589.5 1910.49   8
 -10   3   2 18892.7 1512.17   4
 -10  -3   2 21208.0 1835.26   4
 -10   3   2 19724.0 1958.73   7
  10  -3  -1 72.4804 1150.18   8
  10   3  -1 1181.70 694.224   8
 -10   3   1 301.953 376.545   4
 -10   3   1 942.878 535.575   7
 -10  -3   1 845.859 554.782   4
  10   3   0 16568.8 1745.17   8
 -10   3   0 19209.8 1642.46   4
  10  -3   0 13991.9 2122.75   8
 -10  -3   0 19659.8 2001.48   4
 -10   3   0 17016.1 1752.02   7
  10  -3   1-184.519 725.848   8
  10   3   1-3.58410 546.629   8
 -10   3  -1 105.687 464.114   4
 -10  -3  -1-637.788 702.514   4
  10  -3   2 282.585 711.693   8
  10   3   2 664.046 583.412   8
 -10   3  -2 2113.81 734.113   4
 -10  -3  -2 2244.79 1003.13   4
  10  -3   3 22251.8 2295.39   8
  10   3   3 20320.5 2094.13   8
 -10   3  -3 17255.7 1762.63   4
 -10  -3  -3 24971.6 2701.19   4
  10  -3   4 6817.62 1365.37   8
  10   3   4 9759.04 1582.47   8
 -10  -3  -4 10179.8 1916.55   4
 -10   4  13 180.394 545.475   7
 -10   4  13 572.615 467.448   1
  10  -4 -12 16613.0 1768.83   2
 -10   4  12 15660.1 1557.17   7
 -10  -4  12 17942.4 1801.09  10
 -10   4  12 15932.5 1561.94   1
  10   4 -12 17662.0 1904.62   5
  10   4 -11 2367.32 798.003   5
 -10   4  11 4039.72 878.599   1
 -10   4  11 3677.79 850.349   7
  10  -4 -11 3874.08 904.529   2
 -10  -4  11 4751.41 1085.45  10
  10   4 -10 8434.93 1298.17   5
 -10   4  10 7013.15 1075.20   1
 -10   4  10 6801.02 1049.97   7
  10  -4 -10 8014.98 1231.03   2
 -10  -4  10 6202.74 1123.04  10
  10  -4  -9 62437.7 3329.11   2
  10   4  -9 57001.8 3678.03   8
 -10   4   9 58933.6 2889.85   7
 -10   4   9 61729.6 3293.26   1
 -10  -4   9 64269.2 3350.11  10
  10   4  -9 64664.6 3393.63   5
  10  -4  -8 2287.70 624.535   9
  10   4  -8 3492.83 868.401   5
  10   4  -8 4945.74 1282.60   8
  10  -4  -8 2355.76 734.286   2
 -10   4   8 2899.09 721.533   7
 -10   4   8 2039.77 929.596   1
 -10  -4   8 3670.13 911.979   1
 -10  -4   8 3656.08 930.762  10
  10   4  -7 686.904 545.102   5
  10  -4  -7-454.906 464.934   9
  10  -4  -7-28.1103 443.781   8
  10   4  -7-339.079 693.084   8
 -10  -4   7 228.748 542.088   1
 -10   4   7 733.253 460.725   7
 -10  -4   7-290.743 604.002  10
  10  -4  -6 48278.8 2913.08   8
  10   4  -6 44565.9 3351.73   8
 -10   4   6 49836.5 2662.04   7
  10   4  -6 47122.4 2790.23   5
  10  -4  -6 40861.6 2403.03   9
  10  -4  -5 14776.6 1775.84   8
  10   4  -5 14932.9 2019.94   8
 -10   4   5 15509.6 1543.87   7
  10   4  -5 18424.1 1761.92   5
  10  -4  -5 13554.5 1472.13   9
  10  -4  -4 13968.2 1856.96   8
 -10  -4   4 15045.2 1491.04   4
  10   4  -4 14952.6 1876.28   8
 -10   4   4 13769.9 1509.06   7
  10   4  -4 14120.2 1543.01   5
  10  -4  -4 15816.8 1607.92   9
  10  -4  -3-397.930 826.594   8
  10   4  -3 1329.76 879.989   8
 -10   4   3-656.477 550.000   7
 -10  -4   3 516.872 425.841   4
  10   4  -3 246.390 393.851   5
  10  -4  -2 8.71789 866.926   8
  10   4  -2-657.024 609.943   8
 -10   4   2 152.239 615.146   7
 -10  -4   2 915.302 621.315   4
  10   4  -2-30.4813 433.064   5
  10  -4  -1 961.643 979.767   8
  10   4  -1-1351.78 891.335   8
 -10   4   1 173.384 358.553   4
 -10   4   1-107.645 541.653   7
 -10  -4   1-233.172 430.649   4
  10   4  -1-452.169 466.470   5
  10  -4   0 6529.35 1388.15   8
  10   4   0 7503.43 1321.54   8
 -10   4   0 6421.04 1018.46   4
 -10   4   0 6718.84 1238.55   7
 -10  -4   0 8758.75 1375.35   4
  10   4   0 7003.53 1115.37   5
  10  -4   1 4580.68 1259.50   8
  10   4   1 4805.56 1088.18   8
 -10   4  -1 4528.23 842.927   4
 -10  -4  -1 4082.76 999.854   4
  10  -4   2 20453.6 2214.17   8
 -10   4  -2 16502.8 1693.48   4
  10   4   2 20367.3 2091.88   8
  10  -4   3-548.407 812.176   8
  10   4   3-660.507 753.015   8
 -10   4  -3-38.8171 470.874   4
 -10  -4  -3-311.155 642.185   4
 -10   5  12 3572.62 807.185   1
  10  -5 -11 18459.3 1877.07   2
 -10   5  11 14737.2 1581.68   7
 -10   5  11 16954.1 1683.55   1
 -10  -5  11 16063.0 1738.73  10
  10   5 -11 19298.9 2088.92   5
 -10   5  10 8981.22 1265.88   1
  10   5 -10 7365.61 1333.47   5
 -10   5  10 8037.48 1171.23   7
  10  -5 -10 6179.14 1130.17   2
 -10  -5  10 6852.51 1315.34  10
  10   5  -9 2413.96 792.001   5
  10   5  -9 2016.20 926.435   8
  10  -5  -9 2253.10 771.769   2
 -10   5   9 2582.77 766.489   7
 -10   5   9 1707.36 725.645   1
 -10  -5   9 1609.68 663.719  10
  10   5  -8 23266.5 2397.96   8
 -10   5   8 16739.5 1639.67   7
 -10   5   8 22822.4 2519.91   1
  10   5  -8 18609.8 1968.20   5
  10  -5  -8 21124.9 1770.17   9
  10  -5  -8 22317.3 2086.91   2
  10   5  -7 38928.1 3129.88   8
 -10   5   7 37116.7 2431.86   7
  10   5  -7 35572.4 2673.25   5
  10  -5  -7 37020.9 2339.83   9
  10   5  -6 3427.14 914.468   5
  10  -5  -6 1718.63 639.126   9
  10  -5  -6 5302.47 1158.56   8
  10   5  -6 4149.08 1092.64   8
 -10   5   6 2962.88 858.757   7
  10   5  -5 535.673 559.533   5
  10  -5  -5 523.459 489.536   9
  10  -5  -5 751.604 913.965   8
  10   5  -5 466.710 765.729   8
 -10   5   5-255.088 511.749   7
  10   5  -4 20372.3 2639.66   8
  10  -5  -4 16802.8 2192.19   8
 -10   5   4 18951.0 1860.51   7
  10   5  -4 17260.6 1825.32   5
  10  -5  -4 17712.1 1792.82   9
  10  -5  -3 2147.18 823.133   9
  10  -5  -3 1461.42 869.024   8
  10   5  -3 205.506 806.155   8
 -10   5   3 1774.80 784.486   7
  10   5  -3 1099.88 659.065   5
  10  -5  -2 13046.8 1856.91   8
 -10  -5   2 13325.9 1496.62   4
  10   5  -2 15019.0 2100.10   8
 -10   5   2 12543.7 1757.24   7
  10   5  -2 10172.7 1452.16   5
  10  -5  -1-498.155 759.858   8
  10   5  -1 681.067 849.133   8
 -10   5   1 1165.87 685.756   7
 -10  -5   1-175.595 446.322   4
  10   5  -1 1400.12 706.210   5
  10   5   0 15742.9 1978.73   8
  10  -5   0 11770.9 1738.83   8
 -10  -5   0 13582.1 1577.31   4
 -10   5   0 8260.63 1148.61   4
 -10   5   0 11515.0 1669.82   7
  10  -5   1 121.199 650.658   8
  10   5   1-1767.89 939.716   8
 -10   5  -1 123.700 602.424   7
 -10   5  -1-13.4906 523.219   4
 -10  -5  -1-194.828 609.630   4
 -10   5  -2 1187.21 649.733   4
 -10   6  10 3298.58 840.030   1
  10  -6  -9 37717.4 2710.59   2
  10   6  -9 34907.9 2828.48   8
 -10   6   9 32934.1 2647.98   1
  10  -6  -9 30334.2 2241.33   9
  10   6  -8 3400.95 1101.91   5
  10   6  -8 2321.44 877.815   8
  10  -6  -8 2660.06 866.516   2
 -10   6   8 955.109 633.464   7
 -10   6   8 1589.21 908.957   1
  10  -6  -8 3144.82 859.645   9
  10  -6  -7-225.232 592.846   9
  10   6  -7 433.730 726.307   5
  10   6  -7 869.180 815.998   8
 -10   6   7 639.934 631.992   7
  10  -6  -6 28974.9 2637.17   8
  10   6  -6 28427.4 2648.80   8
 -10   6   6 24449.0 2129.97   7
  10   6  -6 29824.1 2863.68   5
  10  -6  -6 26261.6 2128.52   9
  10  -6  -5 9858.17 1374.62   9
  10   6  -5 10855.8 1773.75   5
  10  -6  -5 10276.6 1812.55   8
  10   6  -5 13788.2 2006.02   8
 -10   6   5 9662.49 1423.57   7
  10  -6  -4 5599.87 1108.05   9
  10   6  -4 6574.46 1503.79   5
  10  -6  -4 5867.62 1437.02   8
  10   6  -4 7141.01 1541.44   8
 -10   6   4 8624.88 1433.31   7
  10   6  -3 1172.49 897.147   5
  10  -6  -3 1359.31 746.759   9
  10  -6  -3-241.423 735.551   8
  10   6  -3 687.441 842.662   8
 -10   6   3 1566.80 823.502   7
  10  -6  -2 1174.41 765.989   9
  10  -6  -2-990.972 809.058   8
  10   6  -2 394.530 929.832   8
 -10   6   2 2150.73 1089.27   7
  11   0 -14 22080.4 1981.30   2
  11   0 -13 12715.3 1493.77   2
 -11   0  13 10794.1 1351.11   1
 -11   0  12 1739.50 629.276   1
  11   0 -12 1194.28 553.906   2
  11   0 -12 2499.43 713.851   5
  11   0 -11 794.813 516.990   2
  11   0 -11 434.430 382.258   5
 -11   0  11 1182.32 592.483   1
  11   0 -10 15571.9 1511.70   2
  11   0 -10 15170.8 1475.12   5
 -11   0  10 18402.5 1642.13   1
 -11   0   9 200.072 387.743   1
  11   0  -9 276.555 367.347   2
  11   0  -9-377.129 400.403   5
  11   0  -8 18605.3 1600.73   2
  11   0  -8 19657.2 1582.42   8
 -11   0   8 19688.9 1647.08   1
 -11   0   7 57.8679 369.191   1
  11   0  -7 692.111 441.962   8
  11   0  -7 744.107 443.970   2
  11   0  -6 17590.9 1618.41   8
 -11   0   6 17253.2 1457.72   4
 -11   0   6 16902.4 1531.70   1
  11   0  -5 11817.6 1363.90   8
 -11   0   5 10820.3 1314.16   4
 -11   0   5 14221.9 1470.73   1
  11   0  -4 9582.69 1276.81   8
 -11   0   4 9039.90 1475.92   4
 -11   0   4 8934.33 1311.52   1
  11   0  -3 43761.7 2683.27   8
 -11   0   3 40192.4 2720.44   4
 -11   0   3 43601.1 2980.81   1
  11   0  -2-97.3578 517.234   8
 -11   0   2 179.902 434.331   4
  11   0  -1 1100.72 615.371   8
 -11   0   1 2187.59 737.763   4
 -11   0   0 11991.2 1477.39   4
  11   0   0 12501.9 1648.45   8
  11   0   1 1608.62 967.266   8
 -11   0  -1 54.2153 464.156   4
  11   0   2 5443.09 1476.74   8
 -11   0  -2 9254.21 1332.36   4
  11   0   3 4039.01 1543.03   8
 -11   0  -3 2889.29 812.888   4
  11   1 -14 5735.27 1073.41   2
  11   1 -13 1894.76 690.188   5
 -11   1  13 2310.09 711.676   1
 -11  -1  13 2933.11 886.846   1
  11  -1 -13 2742.24 803.523   2
  11   1 -13 2208.31 681.627   2
 -11   1  12 42069.1 2597.55   1
  11  -1 -12 42991.9 2676.44   2
  11   1 -12 36361.0 2341.42   2
 -11  -1  12 44503.5 2680.54   1
  11   1 -12 40240.1 2485.16   5
 -11  -1  11 464.158 478.336   1
 -11   1  11 1372.08 596.241   1
  11  -1 -11 1176.31 609.226   2
  11   1 -11 129.486 384.931   2
  11  -1 -11-303.589 400.880   5
  11   1 -11 566.092 420.932   5
 -11  -1  10 6231.58 1008.16   1
 -11   1  10 6785.41 1041.95   1
  11  -1 -10 3120.71 779.816   2
  11   1 -10 5939.45 920.147   2
  11  -1 -10 5254.30 902.945   5
  11   1 -10 6186.18 963.310   5
 -11   1   9 364.131 430.836   1
  11  -1  -9 1231.89 516.189   2
  11   1  -9 1324.74 518.784   2
 -11  -1   9 1480.59 569.535   1
  11   1  -9 246.466 445.660   5
 -11   1   8 482.226 360.127   1
  11  -1  -8 518.377 532.450   8
  11   1  -8 146.799 446.475   8
  11  -1  -8 645.746 407.990   2
 -11  -1   8 1130.96 462.796   1
  11   1  -8 341.163 444.956   2
 -11  -1   8 1763.33 625.602  10
  11   1  -8 509.036 441.103   5
  11  -1  -7 3767.34 792.666   8
  11   1  -7 5594.43 918.039   8
 -11  -1   7 4827.77 801.106   1
  11   1  -7 5283.03 848.096   2
 -11  -1   7 5207.03 777.998   4
 -11   1   7 6132.80 1016.64   1
  11  -1  -6 14999.5 1512.84   8
  11   1  -6 15696.9 1517.48   8
 -11  -1   6 18537.5 1516.92   4
 -11   1   6 17153.4 1720.83   1
 -11  -1   6 17296.4 1455.40   1
  11  -1  -5 15790.3 1607.56   8
  11   1  -5 14821.4 1515.08   8
 -11  -1   5 18800.0 1658.04   4
 -11   1   5 17984.6 2087.03   1
 -11  -1   5 18585.6 1518.13   1
  11  -1  -4 7675.74 1162.87   8
  11   1  -4 7229.10 1157.93   8
 -11   1   4 7992.09 1056.65   7
 -11   1   4 8967.93 1205.56   4
 -11  -1   4 9703.54 1315.68   4
 -11  -1   4 8130.45 1042.60   1
  11  -1  -3 5674.92 1097.06   8
  11   1  -3 7826.34 1204.90   8
 -11   1   3 6953.94 1073.56   7
 -11   1   3 6893.89 1063.44   4
 -11  -1   3 7845.60 1383.70   4
 -11  -1   3 5741.96 899.392   1
  11  -1  -2 8183.90 1301.88   8
  11   1  -2 8737.98 1291.84   8
 -11   1   2 7447.44 1124.03   4
 -11  -1   2 6863.11 1385.46   4
 -11  -1   2 7645.47 1098.67   1
  11  -1  -1 16101.7 1883.14   8
  11   1  -1 15468.4 1716.39   8
 -11   1   1 14909.4 1543.26   4
 -11  -1   1 16906.9 1979.16   4
  11  -1   0 4598.20 1277.17   8
  11   1   0 4484.87 1098.12   8
 -11   1   0 5518.56 1033.12   4
 -11  -1   0 3214.58 1016.81   4
  11  -1   1 543.689 1005.37   8
  11   1   1 260.624 622.054   8
 -11   1  -1 616.006 464.854   4
 -11  -1  -1 453.524 608.081   4
  11  -1   2 4048.77 1476.19   8
  11   1   2 5587.35 1305.72   8
 -11   1  -2 4415.64 945.757   4
 -11  -1  -2 4721.26 1107.08   4
 -11   1  -3 11735.0 1547.03   4
  11  -1   3 8718.78 1990.91   8
  11   1   3 10408.3 1766.45   8
 -11  -1  -3 11482.3 1650.55   4
  11   2 -14 23563.3 2043.15   5
 -11   2  13 9880.66 1292.32   1
 -11  -2  13 10566.8 1396.75   1
  11  -2 -13 9393.06 1331.30   2
  11   2 -13 10266.8 1352.88   5
  11   2 -12 1862.78 684.888   5
 -11   2  12 958.080 543.427   1
  11  -2 -12 2485.13 786.963   2
 -11  -2  12 2095.71 686.773   1
  11   2 -11 1264.60 564.965   5
 -11  -2  11 668.893 462.132   1
  11  -2 -11 773.565 517.028   2
  11  -2 -10 14845.7 1573.11   2
 -11  -2  10 15893.1 1544.35   1
 -11   2  10 15254.1 1546.00   1
  11   2 -10 12880.9 1433.92   5
 -11   2   9-473.845 543.046   1
 -11  -2   9-50.5740 395.840   1
  11  -2  -9-435.145 514.507   2
 -11  -2   9 522.115 600.359  10
  11   2  -9 380.349 470.442   5
 -11  -2   8 17766.4 1550.23   1
  11   2  -8 16054.6 1511.89   8
 -11   2   8 14645.2 1583.92   1
 -11  -2   8 18287.9 1615.56  10
  11   2  -8 19135.6 1712.30   5
  11  -2  -8 19189.9 1854.31   2
  11  -2  -7 971.777 490.093   8
  11   2  -7 797.411 627.227   8
 -11   2   7 867.589 432.311   7
 -11  -2   7 632.654 394.774   4
 -11   2   7 557.116 512.557   1
 -11  -2   7 49.6561 423.052   1
 -11  -2   7 801.247 619.382  10
  11   2  -7-55.7752 413.342   5
  11  -2  -6 15734.2 1597.98   8
  11   2  -6 15233.9 1545.01   8
 -11  -2   6 17064.0 1473.09   4
 -11   2   6 15883.7 1399.81   7
 -11   2   6 18373.1 2138.65   1
 -11  -2   6 14336.8 1490.93  10
  11   2  -6 14066.9 1515.67   5
 -11  -2   6 14605.3 1344.86   1
  11   2  -5 9963.98 1291.34   8
  11  -2  -5 10221.5 1342.98   8
 -11  -2   5 11038.5 1268.46   4
 -11   2   5 8547.36 1086.35   7
 -11  -2   5 11857.4 1174.61   1
  11  -2  -4 8026.71 1257.16   8
  11   2  -4 6678.42 1085.49   8
 -11   2   4 7336.00 1070.55   7
 -11  -2   4 7356.51 1102.51   4
 -11  -2   4 8619.50 1009.66   1
  11  -2  -3 32371.7 2499.87   8
  11   2  -3 36751.3 2495.15   8
 -11   2   3 36228.6 2227.70   4
 -11  -2   3 41262.8 2676.12   4
 -11   2   3 35728.2 2345.83   7
  11  -2  -2 1478.71 777.982   8
  11   2  -2 862.275 567.398   8
 -11   2   2 689.713 489.424   4
 -11   2   2-779.167 627.915   7
 -11  -2   2 319.416 543.748   4
  11  -2  -1-887.780 773.001   8
  11   2  -1 1436.14 752.460   8
 -11   2   1 232.788 427.352   4
 -11  -2   1 334.101 581.283   4
 -11   2   0 10133.6 1324.43   4
  11  -2   0 11492.3 1973.72   8
  11   2   0 11838.2 1556.91   8
 -11  -2   0 13141.2 1971.82   4
  11  -2   1 791.329 1127.88   8
  11   2   1-61.7491 569.861   8
 -11   2  -1 583.173 582.371   4
 -11  -2  -1 1081.81 850.642   4
  11  -2   2 4287.37 1627.35   8
  11   2   2 4454.01 1056.88   8
 -11   2  -2 6139.90 1105.90   4
  11   2   3 3799.99 1155.06   8
  11   3 -13 2556.02 753.557   5
  11  -3 -12 36171.7 2620.15   2
 -11  -3  12 38616.0 2618.43   1
  11   3 -12 32019.3 2429.40   5
 -11   3  12 34214.5 2375.34   1
  11   3 -11 1157.29 570.831   5
 -11   3  11 1379.47 561.500   1
  11  -3 -11 628.967 496.540   2
 -11  -3  11 1023.82 623.275  10
 -11  -3  11-92.5979 401.513   1
  11   3 -10 3899.51 961.940   5
 -11   3  10 4329.58 906.661   1
 -11   3  10 2923.89 688.429   7
  11  -3 -10 4541.66 963.840   2
 -11  -3  10 3913.49 807.236   1
 -11  -3  10 5229.06 987.642  10
 -11  -3   9 447.166 396.505   1
  11   3  -9-808.176 512.225   8
  11  -3  -9 760.498 472.947   2
 -11   3   9 757.560 494.601   7
 -11  -3   9 1835.70 734.974  10
 -11   3   9 274.683 417.090   1
  11   3  -9 230.845 413.580   5
  11   3  -8 1294.66 611.443   8
 -11   3   8 1066.55 503.325   7
 -11  -3   8-5.25814 323.834   1
 -11   3   8-212.076 552.042   1
 -11  -3   8 787.777 613.458  10
  11  -3  -8 226.754 483.242   2
  11   3  -8 270.826 460.610   5
  11  -3  -7 5053.03 959.165   8
  11   3  -7 3317.29 857.786   8
 -11  -3   7 4247.01 815.601   1
 -11   3   7 3986.21 773.767   7
 -11   3   7 4553.66 1171.75   1
 -11  -3   7 3052.61 860.604  10
  11   3  -7 3901.42 864.747   5
  11  -3  -6 13920.8 1539.09   8
 -11  -3   6 14156.4 1341.52   1
  11   3  -6 11776.0 1429.60   8
 -11  -3   6 14526.9 1413.65   4
 -11   3   6 14707.7 1433.29   7
  11   3  -6 14295.7 1555.82   5
  11  -3  -6 12894.2 1361.88   9
  11  -3  -5 13275.0 1594.02   8
  11   3  -5 13870.7 1587.47   8
 -11  -3   5 13977.9 1420.78   4
 -11   3   5 14157.9 1399.23   7
  11   3  -5 15639.6 1598.98   5
  11  -3  -5 14120.7 1469.72   9
  11  -3  -4 6457.36 1214.71   8
  11   3  -4 5375.76 1053.95   8
 -11   3   4 4543.16 923.581   7
 -11  -3   4 4118.75 865.548   4
  11   3  -4 5950.87 1019.84   5
  11  -3  -3 5017.30 1128.78   8
  11   3  -3 3764.39 917.949   8
 -11   3   3 5034.35 1015.96   7
 -11  -3   3 4828.34 964.208   4
  11   3  -3 6036.06 1055.41   5
  11  -3  -2 5869.30 1413.69   8
  11   3  -2 5845.81 1111.16   8
 -11   3   2 5611.14 918.810   4
 -11   3   2 4912.18 1070.99   7
 -11  -3   2 8126.12 1216.95   4
 -11   3   1 12788.3 1399.61   4
  11  -3  -1 11981.4 1998.08   8
 -11  -3   1 14224.3 1671.58   4
  11   3  -1 10153.6 1476.78   8
 -11   3   1 9804.67 1495.96   7
  11   3   0 2466.09 899.234   8
 -11   3   0 2906.28 729.796   4
 -11  -3   0 4150.27 1030.90   4
  11  -3   1 971.951 1077.26   8
  11   3   1 658.668 771.804   8
 -11   3  -1-85.8661 431.893   4
 -11  -3  -1-230.257 669.030   4
  11   3   2 4113.27 1046.77   8
 -11   3  -2 5089.92 1027.63   4
 -11   4  12 958.919 526.054   7
  11   4 -11 962.320 666.496   5
 -11   4  11 2177.97 697.333   1
 -11   4  11 1339.42 556.648   7
  11  -4 -11 1340.35 575.404   2
 -11  -4  11 833.654 652.905  10
  11  -4 -10 11467.8 1517.40   2
  11   4 -10 10735.5 1458.28   5
 -11   4  10 10101.3 1343.68   1
 -11   4  10 9293.35 1219.97   7
 -11  -4  10 9951.44 1386.73  10
  11   4  -9 38.7709 542.079   5
  11   4  -9-43.3110 526.836   8
 -11  -4   9 583.156 501.052   1
  11  -4  -9 224.112 607.875   2
 -11   4   9 819.524 569.905   7
 -11  -4   9-791.660 674.561  10
 -11   4   9 173.828 426.709   1
  11   4  -8 13723.1 1711.72   8
 -11   4   8 11739.1 1352.52   7
 -11  -4   8 13757.6 1460.41   1
 -11   4   8 13326.5 1821.33   1
 -11  -4   8 12485.6 1505.94  10
  11   4  -8 11446.1 1474.55   5
  11  -4  -8 10790.0 1462.03   2
  11  -4  -7 507.795 554.819   8
  11   4  -7-230.645 536.338   8
 -11   4   7 878.661 734.214   1
 -11   4   7-454.396 560.179   7
  11   4  -7 431.776 427.104   5
  11  -4  -6 8382.12 1225.96   9
  11  -4  -6 9446.35 1386.45   8
  11   4  -6 7204.72 1276.18   8
 -11   4   6 8335.68 1168.14   7
  11   4  -6 9122.01 1278.94   5
  11  -4  -5 7378.98 1165.59   9
  11  -4  -5 7545.51 1282.21   8
  11   4  -5 8489.69 1380.00   8
 -11   4   5 5711.53 1035.66   7
  11   4  -5 5212.95 993.599   5
  11  -4  -4 7150.03 1180.01   9
  11  -4  -4 7297.54 1358.20   8
 -11  -4   4 8717.34 1196.27   4
  11   4  -4 7322.88 1299.87   8
 -11   4   4 5401.94 1047.63   7
  11   4  -4 7201.07 1117.11   5
  11  -4  -3 25424.7 2592.89   8
  11   4  -3 30870.4 2539.29   8
 -11  -4   3 33870.4 2362.74   4
 -11   4   3 27264.2 2276.35   7
  11   4  -3 27252.2 2172.24   5
  11  -4  -2-147.993 880.049   8
  11   4  -2 523.993 588.579   8
 -11   4   2 198.858 508.853   7
 -11  -4   2-314.983 435.090   4
  11   4  -2 733.506 553.438   5
  11   4  -1 495.883 541.538   8
 -11   4   1 912.246 670.504   7
 -11  -4   1-75.3099 473.704   4
  11   4  -1-335.128 410.923   5
  11  -4   0 11835.6 2187.70   8
  11   4   0 8796.30 1486.16   8
 -11   4   0 8010.42 1184.57   4
 -11  -4   0 6434.82 1231.78   4
  11   4   0 8404.27 1247.03   5
 -11   4  -1-156.943 499.426   4
 -11   5  10 2968.28 842.595   7
 -11   5  10 1911.42 698.436   1
  11   5  -9 105.939 459.368   5
  11   5  -9 1795.23 849.331   8
  11  -5  -9 1911.42 783.611   2
 -11   5   9 1568.05 688.266   7
 -11   5   9 332.660 506.555   1
  11   5  -8 1315.08 624.225   5
  11   5  -8 648.928 979.723   8
 -11   5   8 633.304 522.267   7
 -11   5   8 442.204 708.145   1
  11  -5  -8 197.924 533.413   2
  11  -5  -7 1650.80 678.139   9
  11   5  -7 2731.38 842.460   5
  11   5  -7 2840.68 1120.35   8
 -11   5   7 1981.84 767.380   7
  11   5  -6 10674.6 1445.58   5
  11  -5  -6 9280.77 1300.65   9
  11  -5  -6 8317.04 1343.37   8
  11   5  -6 11573.1 1882.13   8
 -11   5   6 8908.17 1304.13   7
  11   5  -5 9670.30 1374.71   5
  11  -5  -5 8730.24 1329.85   9
  11  -5  -5 8425.14 1448.17   8
  11   5  -5 8911.22 1639.93   8
 -11   5   5 9249.68 1336.44   7
  11  -5  -4 3650.76 976.848   9
  11  -5  -4 3456.42 1159.75   8
  11   5  -4 2213.77 996.310   8
 -11   5   4 3522.40 890.320   7
  11   5  -4 3406.63 863.104   5
  11  -5  -3 4134.63 1078.92   9
  11  -5  -3 3463.39 1299.40   8
  11   5  -3 3354.46 1067.26   8
 -11   5   3 1656.24 689.222   7
 -11  -5   3 2587.84 765.781   4
  11   5  -3 2979.87 848.560   5
  11  -5  -2 2573.34 1433.30   8
  11   5  -2 4891.58 1200.60   8
 -11   5   2 2443.62 947.461   7
 -11  -5   2 4915.52 974.581   4
  11   5  -2 5827.82 1144.02   5
  11  -6  -6 6420.06 1362.81   8
  11  -6  -5 2257.88 979.907   8
  12   0 -13 8985.65 1290.54   2
 -12   0  12 6485.82 1086.81   1
  12   0 -12 6562.19 1114.54   2
  12   0 -12 6313.98 1036.55   5
  12   0 -11 2221.32 729.041   2
 -12   0  11 2311.32 669.536   1
  12   0 -11 3486.59 784.886   5
 -12   0  10 921.385 490.385   1
  12   0 -10 1212.14 576.620   2
  12   0 -10 740.117 533.735   5
  12   0  -9 13948.0 1496.94   2
  12   0  -9 14048.6 1522.70   5
 -12   0   9 17074.2 1630.88   1
  12   0  -8 1102.27 522.483   8
 -12   0   8 1832.13 676.280   1
  12   0  -8 894.823 540.514   2
 -12   0   7-84.1369 371.899   1
  12   0  -7-809.139 561.468   8
  12   0  -7 383.133 447.898   2
  12   0  -6 18539.9 1750.45   8
 -12   0   6 18669.1 1694.43   1
  12   0  -5 1101.50 643.337   8
 -12   0   5 1707.25 681.853   4
 -12   0   5 1392.59 592.201   1
  12   0  -4 1808.51 747.904   8
 -12   0   4 1436.63 831.346   4
 -12   0   4 824.041 518.498   1
  12   0  -3 42641.1 2825.16   8
 -12   0   3 41338.1 3056.14   4
 -12   0   3 49693.8 3239.42   1
  12   0  -2 1759.81 760.977   8
 -12   0   2 1220.24 659.318   4
 -12   0   2 1623.90 705.629   1
  12   0  -1 292.755 634.579   8
 -12   0   1-213.941 580.561   4
  12   0   0 27306.9 2542.64   8
 -12   0   0 32018.8 2609.91   4
  12   0   1 12246.3 1885.73   8
 -12   0  -1 10023.0 1519.83   4
  12   1 -13-702.753 543.508   5
  12   1 -12 80.1638 467.104   5
 -12  -1  12 628.232 523.939   1
  12  -1 -12 976.354 554.796   2
 -12   1  12 1547.21 693.192   1
  12  -1 -11 24967.6 2071.63   2
 -12  -1  11 28464.9 2144.66   1
  12  -1 -11 25268.1 1959.10   5
  12   1 -11 22682.1 1966.69   5
 -12   1  11 25726.8 2045.17   1
 -12  -1  10 1704.30 598.020   1
 -12   1  10 2816.72 787.278   1
  12  -1 -10 1034.46 539.856   2
  12  -1 -10 2024.82 607.717   5
  12   1 -10 1275.22 645.134   5
 -12   1   9 7818.04 1129.12   1
  12  -1  -9 5683.53 1061.42   2
 -12  -1   9 5283.09 912.103   1
  12   1  -9 5480.40 1056.56   5
 -12   1   8 8155.72 1151.01   1
  12  -1  -8 8017.12 1150.51   8
  12   1  -8 8357.14 1173.01   8
  12  -1  -8 8727.88 1251.78   2
 -12  -1   8 10826.6 1272.42   1
  12   1  -8 8513.99 1214.26   5
  12  -1  -7 710.442 614.962   8
  12   1  -7 731.434 549.932   8
 -12  -1   7 1082.12 491.967   1
 -12   1   7 461.083 452.842   1
  12  -1  -6 1140.87 581.947   8
  12   1  -6 875.848 600.006   8
 -12  -1   6 1276.68 512.813   1
 -12  -1   6 1305.24 541.425   4
 -12   1   6 514.953 434.520   1
  12  -1  -5 14176.9 1630.43   8
  12   1  -5 13684.5 1549.29   8
 -12  -1   5 15908.1 1593.21   4
 -12   1   5 17510.0 1960.05   1
 -12  -1   5 14539.8 1395.12   1
 -12  -1   4 6522.27 997.384   1
  12  -1  -4 7662.78 1246.03   8
  12   1  -4 7508.23 1243.16   8
 -12   1   4 6208.61 1144.21   4
 -12  -1   4 6279.69 1136.89   4
 -12   1   4 8466.88 1537.18   1
  12  -1  -3-358.407 592.996   8
  12   1  -3 1046.91 591.245   8
 -12   1   3-77.1377 478.228   4
 -12  -1   3 779.447 680.828   4
  12  -1  -2 12950.9 1716.77   8
  12   1  -2 15328.5 1756.71   8
 -12   1   2 16035.6 1720.38   4
 -12  -1   2 19275.9 2327.52   4
  12  -1  -1 32391.9 2713.46   8
  12   1  -1 30537.3 2511.05   8
 -12   1   1 33071.1 2457.45   4
 -12  -1   1 30696.9 2859.98   4
  12  -1   0 5778.88 1318.25   8
  12   1   0 4357.13 1043.47   8
 -12   1   0 5343.49 1085.02   4
 -12  -1   0 5863.00 1295.55   4
 -12   1  -1 547.895 463.815   4
  12   2 -12 3986.41 934.683   5
 -12  -2  12 6519.26 1090.37   1
  12  -2 -12 4350.12 971.619   2
  12   2 -11 5063.44 1047.73   5
 -12   2  11 3202.65 800.915   1
  12  -2 -11 1775.06 643.362   2
 -12  -2  11 2871.49 746.725   1
 -12  -2  11 4916.43 984.869  10
 -12   2  10 512.169 485.552   1
 -12  -2  10-103.830 466.119   1
  12  -2 -10 1536.21 654.222   2
 -12  -2  10 1666.70 609.005  10
  12   2 -10 108.735 443.786   5
  12  -2  -9 14271.2 1618.13   2
 -12  -2   9 18198.1 1656.87   1
 -12   2   9 15821.3 1658.97   1
 -12  -2   9 13927.8 1435.83  10
  12   2  -9 14905.6 1618.30   5
 -12  -2   8 713.955 448.388   1
  12   2  -8 375.071 479.833   8
  12  -2  -8-694.056 562.924   2
 -12   2   8 1384.54 600.292   1
  12   2  -8 1004.13 591.469   5
  12  -2  -7 783.306 693.715   8
  12   2  -7-281.439 627.620   8
 -12  -2   7-167.352 376.717   4
 -12  -2   7 6.07685 344.071   1
 -12   2   7 167.714 553.213   1
  12   2  -7 103.204 559.391   5
  12  -2  -6 17543.1 1765.40   8
  12   2  -6 14969.0 1617.74   8
 -12  -2   6 15370.0 1519.22   4
 -12   2   6 14753.1 1919.57   1
  12   2  -6 13644.8 1589.96   5
 -12  -2   6 18393.3 1540.30   1
  12  -2  -5 2098.50 794.555   8
  12   2  -5 355.191 514.915   8
 -12   2   5-21.6613 616.345   1
 -12  -2   5 1331.47 447.204   1
 -12  -2   5 662.250 496.226   4
  12  -2  -4 1016.66 757.736   8
  12   2  -4 1162.95 738.700   8
 -12   2   4 583.047 449.032   7
 -12  -2   4 1977.33 720.266   4
  12  -2  -3 37548.9 2762.89   8
  12   2  -3 35511.3 2595.40   8
 -12  -2   3 38716.5 2703.00   4
 -12   2   3 36339.6 2428.62   7
  12  -2  -2 2192.66 892.032   8
  12   2  -2 2497.91 864.485   8
 -12   2   2 1250.51 589.071   4
 -12  -2   2 1892.52 840.682   4
  12  -2  -1 88.6521 696.993   8
  12   2  -1 15.5139 632.360   8
 -12   2   1 392.740 510.772   4
 -12  -2   1-482.645 870.086   4
  12  -2   0 28532.8 2760.17   8
  12   2   0 27979.6 2472.19   8
 -12   2   0 27818.1 2270.73   4
 -12  -2   0 31834.9 2943.85   4
 -12  -3  11 16971.1 1693.58  10
  12   3 -11 19619.8 1933.75   5
  12   3 -10 1481.55 732.087   5
 -12   3  10 2205.14 949.259   1
  12  -3 -10 590.486 614.424   2
 -12  -3  10 1309.24 578.113   1
 -12  -3  10 2897.89 793.816  10
  12  -3  -9 3730.88 936.748   2
 -12  -3   9 5347.26 1024.82  10
 -12  -3   9 4197.27 835.210   1
 -12   3   9 4747.45 971.233   1
  12   3  -9 5671.95 1065.04   5
 -12  -3   8 10189.7 1242.55   1
  12   3  -8 6300.22 1082.88   8
 -12   3   8 6866.87 1046.07   7
 -12   3   8 7358.37 1317.57   1
 -12  -3   8 7242.71 1131.68  10
  12  -3  -8 7072.77 1254.28   2
  12   3  -8 7202.34 1189.21   5
  12  -3  -7 952.554 637.979   8
  12   3  -7 854.035 612.032   8
 -12   3   7 1093.11 532.473   7
 -12   3   7-209.741 633.221   1
  12   3  -7 424.916 449.254   5
  12  -3  -6 1120.89 605.004   8
  12   3  -6 1203.45 662.970   8
 -12   3   6-10.8958 580.305   1
 -12   3   6-213.661 426.087   7
 -12  -3   6 341.701 496.662   4
  12   3  -6 1057.21 689.309   5
  12  -3  -5 13730.8 1681.36   8
  12   3  -5 12284.3 1550.34   8
 -12  -3   5 12645.5 1428.04   4
 -12   3   5 10973.3 1351.33   7
  12   3  -5 11902.4 1466.25   5
  12  -3  -4 7537.22 1420.09   8
  12   3  -4 5545.24 1034.65   8
 -12   3   4 5774.55 1031.33   7
 -12  -3   4 6229.94 1109.83   4
  12   3  -4 5046.11 1026.44   5
  12   3  -3-318.624 588.705   8
 -12   3   3 300.746 503.168   7
 -12  -3   3 345.866 450.153   4
  12   3  -3-244.703 469.517   5
  12  -3  -2 17039.2 2139.29   8
  12   3  -2 15127.6 1803.98   8
 -12  -3   2 14864.7 1695.51   4
 -12   3   2 12018.9 1623.74   7
  12   3  -2 14020.2 1619.57   5
  12  -3  -1 27233.8 2761.98   8
  12   3  -1 28330.2 2472.03   8
 -12   3   1 26665.8 2125.79   4
 -12  -3   1 29169.2 2495.57   4
 -12   3   0 4021.67 974.598   4
 -12   4  10 578.726 468.072   7
 -12  -4  10-346.634 672.751  10
  12   4  -9 10694.6 1420.38   8
 -12   4   9 10654.1 1308.35   7
 -12  -4   9 9108.46 1324.89  10
  12   4  -8 772.645 567.064   5
  12   4  -8 1153.07 721.149   8
 -12   4   8-215.436 454.857   7
 -12   4   8 256.397 609.686   1
  12  -4  -8 539.834 541.570   2
  12  -4  -7-228.093 577.737   8
  12   4  -7-517.342 654.952   8
 -12   4   7 73.7449 433.360   7
 -12   4   7 1442.26 1020.76   1
  12   4  -7-395.057 467.267   5
  12  -4  -6 12070.2 1588.94   8
  12   4  -6 11835.1 1598.35   8
 -12   4   6 8171.48 1227.03   7
  12   4  -6 9732.92 1414.16   5
  12  -4  -5 1188.45 820.404   9
  12  -4  -5 1447.58 705.124   8
  12   4  -5 586.768 597.901   8
 -12   4   5-390.106 524.262   7
 -12  -4   5 846.857 519.270   4
  12   4  -5 1119.23 612.646   5
  12  -4  -4 2557.22 898.278   9
  12  -4  -4 2752.21 977.186   8
  12   4  -4 2635.47 925.706   8
 -12   4   4 1111.43 502.934   7
 -12  -4   4 1466.71 610.070   4
  12   4  -4 1269.09 704.726   5
  12  -4  -3 25980.1 2556.21   8
  12   4  -3 27173.8 2427.22   8
 -12  -4   3 27933.3 2253.16   4
 -12   4   3 32901.3 2525.87   7
  12   4  -3 27467.5 2252.82   5
 -12   4   2 820.301 699.308   7
  12   4  -2 2855.29 824.692   5
  12   4  -1-650.522 642.762   5
  12  -5  -6 227.371 515.508   9
  12  -5  -6-821.189 672.681   8
  12  -5  -5 8776.03 1385.83   9
  13   0 -12 1070.56 505.914   2
  13   0 -12 2112.72 706.910   5
  13   0 -11 16543.1 1686.32   2
  13   0 -11 20118.9 1878.95   5
 -13   0  10 3718.24 848.468   1
  13   0 -10 1436.98 629.275   2
  13   0 -10 2927.09 824.785   5
 -13   0   9 7573.36 1156.64   1
  13   0  -9 7220.61 1107.16   2
  13   0  -8 31481.9 2280.52   2
  13   0  -8 31305.2 2303.93   8
 -13   0   8 32919.5 2307.05   1
  13   0  -7 11693.2 1470.91   8
 -13   0   7 11018.2 1355.54   1
 -13   0   6-218.008 418.995   1
  13   0  -6-1387.94 803.738   8
  13   0  -5 3617.59 995.356   8
 -13   0   5 5322.10 977.583   1
  13   0  -4 11426.8 1549.14   8
 -13   0   4 12509.0 1703.13   4
 -13   0   4 13948.9 1568.19   1
  13   0  -3 1547.60 760.947   8
 -13   0   3 1536.07 950.830   4
 -13   0   3 1297.62 698.619   1
 -13   0   2 9737.43 1710.77   4
  13  -1 -11 10666.7 1418.28   2
  13  -1 -11 11552.4 1422.99   5
  13   1 -11 13655.7 1589.56   5
 -13  -1  10 10406.7 1329.98   1
  13  -1 -10 8172.07 1240.73   2
 -13   1  10 9954.62 1326.18   1
  13   1 -10 10216.3 1381.66   5
  13  -1 -10 8543.62 1257.02   5
 -13  -1   9 29072.4 2166.81   1
  13  -1  -9 29341.4 2299.33   2
 -13   1   9 30169.0 2264.96   1
  13   1  -9 27332.3 2257.99   5
 -13   1   8 5889.56 997.570   1
  13   1  -8 7810.32 1194.63   8
  13  -1  -8 6776.59 1191.49   2
 -13  -1   8 6716.64 1076.55   1
  13   1  -8 7032.36 1244.17   5
 -13   1   7 4365.40 917.692   1
  13  -1  -7 5211.48 1128.03   8
  13   1  -7 6713.57 1165.37   8
 -13  -1   7 5971.83 972.605   1
  13   1  -7 5221.57 1112.75   5
  13  -1  -7 3898.97 952.596   2
  13  -1  -6 42029.3 2832.11   8
  13   1  -6 38722.0 2671.67   8
 -13   1   6 40553.1 2759.63   1
 -13  -1   6 40110.4 2445.45   1
  13  -1  -5 1884.47 806.445   8
 -13  -1   5 1659.60 533.907   1
  13   1  -5 698.346 808.481   8
 -13  -1   5 1352.43 575.500   4
 -13   1   5 2076.85 872.702   1
  13  -1  -4 1979.62 775.526   8
  13   1  -4 3502.74 965.040   8
 -13  -1   4 4927.82 996.369   4
 -13   1   4 4096.41 1185.47   1
  13  -1  -3 1938.45 846.259   8
  13   1  -3 1790.94 743.399   8
 -13   1   3 4435.25 1159.77   4
 -13  -1   3 1714.09 810.425   4
 -13   1   3 2138.18 953.533   1
 -13   1   2 75.1957 690.594   4
 -13  -1   2 211.294 711.740   4
 -13  -2  10 2562.61 810.852   1
 -13  -2   9 8434.21 1186.01   1
  13  -2  -9 6727.76 1199.32   2
  13   2  -9 7478.26 1232.80   5
 -13  -2   8 29161.1 2113.91   1
  13   2  -8 25372.0 2107.23   8
 -13   2   8 31547.5 2447.97   1
  13   2  -8 25372.5 2190.58   5
  13  -2  -8 27148.6 2371.76   2
 -13  -2   7 10133.9 1234.97   1
  13  -2  -7 9143.29 1368.14   8
  13   2  -7 8634.99 1330.02   8
 -13  -2   7 9653.54 1211.77   4
 -13   2   7 10092.8 1483.41   1
  13   2  -7 8625.70 1380.33   5
  13  -2  -6 253.139 531.574   8
  13   2  -6-412.208 540.381   8
 -13  -2   6 244.022 462.348   4
 -13   2   6-373.109 750.362   1
  13   2  -6 279.535 540.698   5
  13  -2  -5 4813.29 1125.06   8
  13   2  -5 6720.00 1237.40   8
 -13  -2   5 5018.31 1018.34   4
 -13   2   5 5074.98 1331.25   1
  13   2  -5 5967.59 1129.70   5
  13  -2  -4 11514.0 1664.55   8
  13   2  -4 9782.03 1509.26   8
 -13   2   4 12960.8 1825.96   1
 -13  -2   4 12064.6 1456.63   4
 -13  -2   3 1290.19 637.562   4
 -13   2   2 6854.66 1210.68   4
 -13  -3  10 6548.65 1122.51  10
 -13  -3   9 28873.9 2145.81   1
  13   3  -8 4646.17 1001.85   8
  13  -3  -7 3593.64 961.808   8
  13   3  -7 3599.30 930.573   8
  13  -3  -6 31982.9 2513.40   8
  13   3  -6 31285.4 2482.48   8
 -13  -3   6 33420.2 2339.15   4
  13  -3  -5 2246.60 969.126   8
 -13  -3   5 924.830 558.361   4
 -13   3   4 2826.20 794.651   7
 -13   3   3 2179.08 752.172   7
 -14  -1   6 89.5800 380.444   1
   0   0   0    0.00    0.00   0
;
_shelx_hkl_checksum              56351
loop_
_space_group_symop_operation_xyz
'x, y, z'
'-x, y+1/2, -z'
'-x, -y, -z'
'x, -y-1/2, z'
loop_
_atom_site_label
_atom_site_type_symbol
_atom_site_fract_x
_atom_site_fract_y
_atom_site_fract_z
_atom_site_U_iso_or_equiv
_atom_site_adp_type
_atom_site_occupancy
_atom_site_site_symmetry_order
_atom_site_calc_flag
_atom_site_refinement_flags_posn
_atom_site_refinement_flags_adp
_atom_site_refinement_flags_occupancy
_atom_site_disorder_assembly
_atom_site_disorder_group
I1 I 0.88099(4) 0.250000 0.03135(3) 0.02161(10) Uani 1 2 d S T P . .
N1 N 0.8563(5) 0.250000 0.3175(4) 0.0163(9) Uani 1 2 d DS T P . .
H11 H 0.849(4) 0.250000 0.396(3) 0.034(10) Uiso 1 2 d DS U P . .
H12 H 0.911(4) 0.138(5) 0.315(3) 0.034(10) Uiso 1 1 d D U . . .
C1 C 0.6981(6) 0.250000 0.2069(5) 0.0155(11) Uani 1 2 d DS T P . .
C2 C 0.6836(6) 0.250000 0.0786(5) 0.0138(10) Uani 1 2 d S T P . .
C3 C 0.5335(6) 0.250000 -0.0243(5) 0.0165(11) Uani 1 2 d S T P . .
H3 H 0.522156 0.250000 -0.111808 0.020 Uiso 1 2 calc R U P . .
C4 C 0.4018(6) 0.250000 0.0040(5) 0.0195(11) Uani 1 2 d S T P . .
H4 H 0.301644 0.250000 -0.064539 0.023 Uiso 1 2 calc R U P . .
C5 C 0.4188(6) 0.250000 0.1348(5) 0.0215(12) Uani 1 2 d S T P . .
H5 H 0.329780 0.250000 0.153573 0.026 Uiso 1 2 calc R U P . .
C6 C 0.5663(6) 0.250000 0.2365(5) 0.0163(11) Uani 1 2 d S T P . .
H6 H 0.577935 0.250000 0.324080 0.020 Uiso 1 2 calc R U P . .
I2 I 0.95898(4) 0.250000 0.67290(3) 0.01430(9) Uani 1 2 d S T P . .
I3 I 0.60419(3) 0.250000 0.62212(3) 0.01337(8) Uani 1 2 d S T P . .
I4 I 0.28733(4) 0.250000 0.58194(3) 0.01551(9) Uani 1 2 d S T P . .
loop_
_atom_site_aniso_label
_atom_site_aniso_U_11
_atom_site_aniso_U_22
_atom_site_aniso_U_33
_atom_site_aniso_U_23
_atom_site_aniso_U_13
_atom_site_aniso_U_12
I1 0.02212(19) 0.0280(2) 0.01836(18) 0.000 0.01196(15) 0.000
N1 0.020(2) 0.016(2) 0.012(2) 0.000 0.0066(19) 0.000
C1 0.021(3) 0.008(2) 0.015(3) 0.000 0.005(2) 0.000
C2 0.019(3) 0.009(2) 0.015(2) 0.000 0.008(2) 0.000
C3 0.024(3) 0.012(2) 0.011(2) 0.000 0.005(2) 0.000
C4 0.016(3) 0.009(2) 0.025(3) 0.000 -0.001(2) 0.000
C5 0.023(3) 0.012(3) 0.033(3) 0.000 0.015(2) 0.000
C6 0.025(3) 0.009(2) 0.019(3) 0.000 0.014(2) 0.000
I2 0.01101(16) 0.01661(17) 0.01567(17) 0.000 0.00583(13) 0.000
I3 0.01188(16) 0.01645(17) 0.01264(16) 0.000 0.00587(12) 0.000
I4 0.01086(16) 0.01620(18) 0.01916(18) 0.000 0.00580(13) 0.000
loop_
_atom_type_symbol
_atom_type_description
_atom_type_scat_dispersion_real
_atom_type_scat_dispersion_imag
_atom_type_scat_source
C C 0.0033 0.0016 'International Tables Vol C Tables 4.2.6.8 and 6.1.1.4'
H H 0.0000 0.0000 'International Tables Vol C Tables 4.2.6.8 and 6.1.1.4'
N N 0.0061 0.0033 'International Tables Vol C Tables 4.2.6.8 and 6.1.1.4'
I I -0.4742 1.8119 'International Tables Vol C Tables 4.2.6.8 and 6.1.1.4'
loop_
_geom_angle_atom_site_label_1
_geom_angle_atom_site_label_2
_geom_angle_atom_site_label_3
_geom_angle
_geom_angle_site_symmetry_1
_geom_angle_site_symmetry_3
C1 N1 H11 111(2) . .
C1 N1 H12 111(2) . .
H11 N1 H12 107(3) . .
C1 N1 H12 111(2) . 4_565
H11 N1 H12 107(3) . 4_565
H12 N1 H12 109(5) . 4_565
C2 C1 C6 121.3(5) . .
C2 C1 N1 120.2(4) . .
C6 C1 N1 118.5(4) . .
C1 C2 C3 119.3(4) . .
C1 C2 I1 122.0(4) . .
C3 C2 I1 118.7(4) . .
C4 C3 C2 119.9(5) . .
C4 C3 H3 120.1 . .
C2 C3 H3 120.1 . .
C3 C4 C5 120.1(5) . .
C3 C4 H4 120.0 . .
C5 C4 H4 120.0 . .
C6 C5 C4 120.3(5) . .
C6 C5 H5 119.9 . .
C4 C5 H5 119.9 . .
C5 C6 C1 119.2(5) . .
C5 C6 H6 120.4 . .
C1 C6 H6 120.4 . .
I4 I3 I2 178.862(14) . .
loop_
_geom_bond_atom_site_label_1
_geom_bond_atom_site_label_2
_geom_bond_distance
_geom_bond_site_symmetry_2
I1 C2 2.100(5) .
N1 C1 1.479(6) .
N1 H11 0.90(3) .
N1 H12 0.90(3) .
N1 H12 0.90(3) 4_565
C1 C2 1.368(6) .
C1 C6 1.389(7) .
C2 C3 1.394(7) .
C3 C4 1.379(7) .
C3 H3 0.9300 .
C4 C5 1.390(7) .
C4 H4 0.9300 .
C5 C6 1.373(7) .
C5 H5 0.9300 .
C6 H6 0.9300 .
I2 I3 3.1069(4) .
I3 I4 2.7896(4) .
loop_
_geom_hbond_atom_site_label_D
_geom_hbond_atom_site_label_H
_geom_hbond_atom_site_label_A
_geom_hbond_distance_DH
_geom_hbond_distance_HA
_geom_hbond_distance_DA
_geom_hbond_angle_DHA
_geom_hbond_site_symmetry_A
_geom_hbond_publ_flag
N1 H11 I2 0.90(3) 2.81(3) 3.647(4) 156(3) . yes
N1 H12 I2 0.90(3) 2.79(3) 3.6795(19) 168(3) 3_756 yes
loop_
_geom_torsion_atom_site_label_1
_geom_torsion_atom_site_label_2
_geom_torsion_atom_site_label_3
_geom_torsion_atom_site_label_4
_geom_torsion
_geom_torsion_site_symmetry_1
_geom_torsion_site_symmetry_2
_geom_torsion_site_symmetry_3
_geom_torsion_site_symmetry_4
C6 C1 C2 C3 0.000(1) . . . .
N1 C1 C2 C3 180.000(1) . . . .
C6 C1 C2 I1 180.000(1) . . . .
N1 C1 C2 I1 0.000(1) . . . .
C1 C2 C3 C4 0.000(1) . . . .
I1 C2 C3 C4 180.0 . . . .
C2 C3 C4 C5 0.000(0) . . . .
C3 C4 C5 C6 0.000(1) . . . .
C4 C5 C6 C1 0.000(1) . . . .
C2 C1 C6 C5 0.000(1) . . . .
N1 C1 C6 C5 180.000(1) . . . .
