#------------------------------------------------------------------------------
#$Date: 2022-07-01 10:11:15 +0300 (Fri, 01 Jul 2022) $
#$Revision: 276473 $
#$URL: file:///home/coder/svn-repositories/cod/cif/8/10/56/8105602.cif $
#------------------------------------------------------------------------------
#
# This file is available in the Crystallography Open Database (COD),
# http://www.crystallography.net/
#
# All data on this site have been placed in the public domain by the
# contributors.
#
data_8105602
loop_
_publ_author_name
'Gao, Liang-Liang'
'Huang, Shan-Xiu'
'Wu, Wei-Na'
_publ_section_title
;
 Crystal structure of 3-aminopyrazine-2-carbohydrazide, C5H7N5O
;
_journal_issue                   2
_journal_name_full
'Zeitschrift f\"ur Kristallographie - New Crystal Structures'
_journal_page_first              237
_journal_page_last               238
_journal_paper_doi               10.1515/ncrs-2018-0278
_journal_volume                  234
_journal_year                    2019
_chemical_formula_sum            'C5 H7 N5 O'
_chemical_formula_weight         153.16
_space_group_crystal_system      monoclinic
_space_group_IT_number           14
_space_group_name_Hall           '-P 2ybc'
_space_group_name_H-M_alt        'P 1 21/c 1'
_atom_sites_solution_hydrogens   mixed
_audit_creation_method           SHELXL-2017/1
_cell_angle_alpha                90
_cell_angle_beta                 94.1380(10)
_cell_angle_gamma                90
_cell_formula_units_Z            4
_cell_length_a                   10.1022(8)
_cell_length_b                   9.4818(8)
_cell_length_c                   7.0832(6)
_cell_measurement_reflns_used    1794
_cell_measurement_temperature    296(2)
_cell_measurement_theta_max      27.98
_cell_measurement_theta_min      2.88
_cell_volume                     676.71(10)
_computing_cell_refinement       'Bruker SMART'
_computing_data_collection       'Bruker SMART'
_computing_data_reduction        'Bruker SAINT'
_computing_molecular_graphics    'Bruker SHELXTL'
_computing_publication_material  'Bruker SHELXTL'
_computing_structure_refinement  'SHELXL-2017/1 (Sheldrick, 2017)'
_computing_structure_solution    'Bruker SHELXTL'
_diffrn_ambient_temperature      296(2)
_diffrn_measured_fraction_theta_full 1.000
_diffrn_measured_fraction_theta_max 1.000
_diffrn_measurement_device_type  'CCD area detector'
_diffrn_measurement_method       'phi and omega scans'
_diffrn_radiation_type           MoK\a
_diffrn_radiation_wavelength     0.71073
_diffrn_reflns_av_R_equivalents  0.0142
_diffrn_reflns_av_unetI/netI     0.0152
_diffrn_reflns_Laue_measured_fraction_full 1.000
_diffrn_reflns_Laue_measured_fraction_max 1.000
_diffrn_reflns_limit_h_max       11
_diffrn_reflns_limit_h_min       -12
_diffrn_reflns_limit_k_max       11
_diffrn_reflns_limit_k_min       -8
_diffrn_reflns_limit_l_max       8
_diffrn_reflns_limit_l_min       -7
_diffrn_reflns_number            3368
_diffrn_reflns_point_group_measured_fraction_full 1.000
_diffrn_reflns_point_group_measured_fraction_max 1.000
_diffrn_reflns_theta_full        24.980
_diffrn_reflns_theta_max         24.980
_diffrn_reflns_theta_min         2.021
_exptl_absorpt_coefficient_mu    0.114
_exptl_absorpt_correction_T_max  0.992
_exptl_absorpt_correction_T_min  0.988
_exptl_absorpt_correction_type   multi-scan
_exptl_absorpt_process_details   sadabs
_exptl_crystal_colour            colorless
_exptl_crystal_density_diffrn    1.503
_exptl_crystal_description       rod
_exptl_crystal_F_000             320
_exptl_crystal_size_max          0.200
_exptl_crystal_size_mid          0.070
_exptl_crystal_size_min          0.060
_refine_diff_density_max         0.263
_refine_diff_density_min         -0.186
_refine_diff_density_rms         0.039
_refine_ls_extinction_coef       .
_refine_ls_extinction_method     none
_refine_ls_goodness_of_fit_ref   1.071
_refine_ls_hydrogen_treatment    mixed
_refine_ls_matrix_type           full
_refine_ls_number_parameters     108
_refine_ls_number_reflns         1189
_refine_ls_number_restraints     3
_refine_ls_restrained_S_all      1.074
_refine_ls_R_factor_all          0.0417
_refine_ls_R_factor_gt           0.0357
_refine_ls_shift/su_max          0.000
_refine_ls_shift/su_mean         0.000
_refine_ls_structure_factor_coef Fsqd
_refine_ls_weighting_details
'w=1/[\s^2^(Fo^2^)+(0.0577P)^2^+0.1744P] where P=(Fo^2^+2Fc^2^)/3'
_refine_ls_weighting_scheme      calc
_refine_ls_wR_factor_gt          0.1030
_refine_ls_wR_factor_ref         0.1088
_reflns_Friedel_coverage         0.000
_reflns_Friedel_fraction_full    .
_reflns_Friedel_fraction_max     .
_reflns_number_gt                1031
_reflns_number_total             1189
_reflns_threshold_expression     'I > 2\s(I)'
_cod_data_source_file            suppl_ncrs-2018-0278_suppl.cif
_cod_data_source_block           1
_cod_original_sg_symbol_H-M      'P 21/c'
_cod_database_code               8105602
_shelx_shelxl_version_number     2017/1
_shelx_space_group_comment
; 
The symmetry employed for this shelxl refinement is uniquely defined 
by the following loop, which should always be used as a source of 
symmetry information in preference to the above space-group names. 
They are only intended as comments. 
;
_shelx_estimated_absorpt_t_min   0.978
_shelx_estimated_absorpt_t_max   0.993
_shelx_res_file
; 
TITL 1 in P2(1)/c 
    1.res 
    created by SHELXL-2017/1 at 11:09:19 on 31-Jul-2018 
CELL 0.71073 10.1022 9.4818 7.0832 90 94.138 90 
ZERR 4 0.0008 0.0008 0.0006 0 0.001 0 
LATT 1 
SYMM -X,0.5+Y,0.5-Z 
SFAC C  H  N  O 
UNIT 20 28 20 4 
OMIT  -2.00  50.00 
L.S. 20 
ACTA 
BOND $H 
FMAP 2 
PLAN 20 
dfix 0.86 0.01 n5 h5a n5 h5b 
dang 1.49 0.01 h5a h5b 
conf 
htab 
EQIV $1 -x+1, y-1/2, -z+1/2 
HTAB N4 O1_$1 
EQIV $2 -x+2, -y+2, -z 
HTAB N3 N2_$2 
HTAB N3 O1 
EQIV $3 -x+1, -y+2, -z+1 
HTAB N5 O1_$3 
SIZE 0.2 0.07 0.06 
TEMP 23 
WGHT    0.057700    0.174400 
FVAR       0.18522 
O1    4    0.584097    1.004654    0.250856    11.00000    0.04806    0.02772 = 
         0.10259   -0.00079    0.02965    0.00181 
C1    1    0.840774    0.610836    0.138261    11.00000    0.04438    0.03496 = 
         0.05446   -0.00110    0.01635    0.00832 
AFIX  43 
H1    2    0.848540    0.513108    0.140645    11.00000   -1.20000 
AFIX   0 
C2    1    0.944511    0.691357    0.083991    11.00000    0.03870    0.04730 = 
         0.04883   -0.00096    0.01306    0.00915 
AFIX  43 
H2    2    1.021405    0.645852    0.052358    11.00000   -1.20000 
AFIX   0 
C3    1    0.827261    0.894060    0.120220    11.00000    0.03485    0.03778 = 
         0.03928   -0.00246    0.00739   -0.00281 
C4    1    0.721194    0.810637    0.180542    11.00000    0.03284    0.03173 = 
         0.03566   -0.00187    0.00549   -0.00118 
C5    1    0.596298    0.875794    0.238716    11.00000    0.03511    0.03037 = 
         0.04711   -0.00082    0.00874   -0.00015 
N1    3    0.729246    0.670970    0.187492    11.00000    0.03818    0.03287 = 
         0.04737   -0.00081    0.01125    0.00184 
N2    3    0.940094    0.830336    0.074666    11.00000    0.03261    0.04616 = 
         0.05035    0.00084    0.01237   -0.00061 
N3    3    0.823080    1.034398    0.104384    11.00000    0.04281    0.03552 = 
         0.07935   -0.00161    0.02469   -0.00778 
AFIX  93 
H3A   2    0.890211    1.079453    0.066743    11.00000   -1.20000 
H3B   2    0.753256    1.079695    0.131829    11.00000   -1.20000 
AFIX   0 
N4    3    0.501342    0.787388    0.278473    11.00000    0.03289    0.02901 = 
         0.06458   -0.00226    0.01717    0.00110 
AFIX  43 
H4    2    0.515859    0.698181    0.272567    11.00000   -1.20000 
AFIX   0 
N5    3    0.375886    0.835209    0.330726    11.00000    0.03429    0.04753 = 
         0.07427   -0.00100    0.02032    0.00448 
H5A   2    0.389926    0.874805    0.443203    11.00000    0.07794 
H5B   2    0.348983    0.893789    0.240769    11.00000    0.10133 
  
HKLF 4 
  
  
  
  
REM  1 in P2(1)/c 
REM R1 =  0.0357 for    1031 Fo > 4sig(Fo)  and  0.0417 for all    1189 data 
REM    108 parameters refined using      3 restraints 
  
END 
  
WGHT      0.0575      0.1752 
  
REM Instructions for potential hydrogen bonds 
HTAB N3 N2_$2 
HTAB N3 O1 
HTAB N4 O1_$1 
HTAB N5 O1_$3 
  
REM Highest difference peak  0.263,  deepest hole -0.186,  1-sigma level  0.039 
Q1    1   0.5593  0.9975  0.1220  11.00000  0.05    0.26 
Q2    1   0.7627  0.8541  0.1644  11.00000  0.05    0.16 
Q3    1   1.0115  0.8790  0.1028  11.00000  0.05    0.14 
Q4    1   0.3807  0.9472  0.3074  11.00000  0.05    0.14 
Q5    1   0.4892  0.7170  0.1920  11.00000  0.05    0.11 
Q6    1   0.7077  0.7993  0.1226  11.00000  0.05    0.11 
Q7    1   0.9028  0.6531  0.1495  11.00000  0.05    0.11 
Q8    1   0.7761  1.0865  0.1865  11.00000  0.05    0.10 
Q9    1   0.6664  0.8429  0.1875  11.00000  0.05    0.10 
Q10   1   0.6919  0.6386  0.3066  11.00000  0.05    0.10 
Q11   1   0.8972  0.8528  0.0889  11.00000  0.05    0.09 
Q12   1   0.8670  0.5145  0.2171  11.00000  0.05    0.09 
Q13   1   1.0609  0.6558  0.1317  11.00000  0.05    0.09 
Q14   1   0.4964  0.8120  0.1529  11.00000  0.05    0.09 
Q15   1   0.6021  0.9626  0.3069  11.00000  0.05    0.09 
Q16   1   0.3213  0.8097  0.1528  11.00000  0.05    0.08 
Q17   1   0.3821  1.0010  0.5327  11.00000  0.05    0.08 
Q18   1   0.9571  0.7772  0.1526  11.00000  0.05    0.08 
Q19   1   0.5000  1.0000  0.0000  10.50000  0.05    0.08 
Q20   1   0.8118  0.6342  0.2247  11.00000  0.05    0.07 
;
_shelx_hkl_file
; 
   0   0  -1    0.15    0.01 
   0   0  -2  167.24    2.38 
   0   0   3    0.01    0.01 
   0   0   4    4.51    0.10 
   0   0   5    0.00    0.01 
   0   0   6    1.63    0.07 
   0   0   7    0.00    0.02 
   0   0   8    0.06    0.03 
   0   0   9   -0.02    0.03 
   0   1   0    0.01    0.00 
   0   1  -1    9.34    0.14 
   0   1   1    9.34    0.13 
   0   1   1    9.46    0.14 
   0   1  -1    9.42    0.13 
   0   1   2   74.54    1.06 
   0   1  -2   75.01    1.05 
   0   1  -3    1.04    0.04 
   0   1   3    1.04    0.04 
   0  -1   3    1.08    0.04 
   0   1   4    1.48    0.05 
   0  -1   4    1.47    0.05 
   0   1   5    3.55    0.09 
   0  -1   5    3.60    0.09 
   0   1   6    0.01    0.02 
   0  -1   6   -0.01    0.02 
   0   1   7    0.03    0.02 
   0  -1   7    0.01    0.02 
   0   1   8    0.05    0.03 
   0  -1   8    0.05    0.03 
   0   1   9    0.03    0.03 
   0  -1   9    0.14    0.04 
   0   2   0   19.20    0.26 
   0   2   0   19.30    0.28 
   0   2   1   30.14    0.46 
   0   2  -1   30.25    0.40 
   0   2  -1   29.53    0.43 
   0   2   1   29.19    0.40 
   0   2   2    1.21    0.03 
   0   2  -2    1.28    0.04 
   0   2   2    1.20    0.03 
   0   2  -2    1.26    0.04 
   0   2   3    4.54    0.09 
   0   2   3    4.66    0.09 
   0   2  -3    4.60    0.09 
   0  -2   3    4.76    0.10 
   0   2   4    0.04    0.01 
   0   2   4    0.01    0.01 
   0  -2   4    0.03    0.02 
   0   2   5    1.08    0.05 
   0   2   5    1.17    0.05 
   0  -2   5    1.16    0.05 
   0   2   6    0.46    0.04 
   0   2   6    0.46    0.04 
   0  -2   6    0.51    0.04 
   0   2   7    0.16    0.03 
   0   2   7    0.14    0.03 
   0  -2   7    0.11    0.03 
   0   2   8    1.20    0.07 
   0  -2   8    1.24    0.07 
   0   2   9   -0.02    0.03 
   0   3   0    0.03    0.00 
   0   3   0    0.03    0.01 
   0   3  -1   12.84    0.19 
   0   3   1   13.07    0.19 
   0   3  -1   12.95    0.20 
   0   3  -2    0.93    0.03 
   0   3  -2    0.91    0.03 
   0   3   2    0.89    0.03 
   0   3   2    0.91    0.02 
   0   3   3   11.35    0.18 
   0   3   3   11.32    0.18 
   0   3  -3   11.25    0.18 
   0   3  -3   11.46    0.19 
   0  -3   3   11.10    0.19 
   0   3   4    2.09    0.05 
   0   3   4    2.21    0.06 
   0  -3   4    2.11    0.07 
   0   3   5    0.21    0.02 
   0   3   5    0.23    0.02 
   0  -3   5    0.19    0.03 
   0   3   6    0.26    0.03 
   0   3   6    0.19    0.03 
   0  -3   6    0.24    0.03 
   0   3   7    0.02    0.02 
   0  -3   7    0.01    0.02 
   0   3   8   -0.02    0.02 
   0  -3   8    0.03    0.03 
   0   3   9    0.00    0.03 
   0   4   0   11.17    0.17 
   0  -4   0   11.39    0.17 
   0   4  -1   28.98    0.42 
   0   4  -1   28.94    0.40 
   0   4   1   29.05    0.40 
   0   4  -1   28.70    0.40 
   0   4  -2    1.64    0.05 
   0   4  -2    1.65    0.05 
   0   4   2    1.58    0.04 
   0  -4   2    1.73    0.05 
   0   4   3    0.01    0.01 
   0   4   3    0.03    0.01 
   0   4  -3    0.02    0.01 
   0  -4   3    0.02    0.01 
   0   4   4    4.69    0.10 
   0   4   4    4.87    0.09 
   0  -4   4    5.07    0.12 
   0   4   5    0.00    0.01 
   0  -4   5    0.01    0.02 
   0   4   6    0.27    0.03 
   0  -4   6    0.23    0.03 
   0   4   7    0.10    0.03 
   0  -4   7    0.08    0.03 
   0   4   8    0.17    0.03 
   0  -4   8    0.10    0.04 
   0   5   0    0.01    0.01 
   0  -5   0    0.01    0.01 
   0   5   1    0.30    0.02 
   0   5  -1    0.31    0.02 
   0   5  -1    0.30    0.02 
   0  -5   1    0.34    0.02 
   0   5  -2   23.13    0.32 
   0   5  -2   21.87    0.33 
   0   5   2   22.58    0.33 
   0  -5   2   22.33    0.34 
   0   5  -3    0.96    0.04 
   0   5   3    0.92    0.04 
   0  -5   3    0.96    0.04 
   0   5   4    0.13    0.02 
   0   5  -4    0.13    0.02 
   0  -5   4    0.15    0.03 
   0   5   5    0.19    0.02 
   0   5  -5    0.18    0.03 
   0  -5   5    0.19    0.03 
   0   5   6    0.13    0.02 
   0  -5   6    0.20    0.03 
   0   5   7    0.39    0.04 
   0  -5   7    0.41    0.05 
   0   5   8    0.27    0.04 
   0  -5   8    0.24    0.05 
   0   6   0   57.31    0.79 
   0  -6   0   58.61    0.82 
   0   6   1    0.80    0.04 
   0   6  -1    0.75    0.03 
   0   6  -1    0.63    0.04 
   0  -6   1    0.70    0.03 
   0   6  -2    6.58    0.13 
   0   6   2    6.56    0.13 
   0  -6   2    6.49    0.13 
   0   6   3    2.34    0.07 
   0   6  -3    2.34    0.07 
   0  -6   3    2.29    0.07 
   0   6  -4    0.32    0.03 
   0   6   4    0.30    0.03 
   0  -6   4    0.30    0.03 
   0   6   5    0.71    0.04 
   0   6  -5    0.76    0.05 
   0  -6   5    0.60    0.05 
   0   6   6    0.02    0.02 
   0  -6   6    0.01    0.02 
   0   6   7    1.11    0.06 
   0  -6   7    1.17    0.07 
   0   6   8    1.06    0.06 
   0   7   0   -0.02    0.01 
   0   7   0    0.00    0.01 
   0   7  -1    0.00    0.01 
   0   7   1    0.00    0.01 
   0   7  -2    0.54    0.04 
   0   7   2    0.59    0.04 
   0  -7   2    0.60    0.03 
   0   7  -3    0.34    0.03 
   0   7   3    0.36    0.03 
   0  -7   3    0.32    0.03 
   0   7  -4    0.00    0.02 
   0   7   4   -0.01    0.01 
   0  -7   4   -0.01    0.02 
   0   7  -5    0.11    0.03 
   0   7   5    0.10    0.02 
   0  -7   5    0.07    0.03 
   0   7   6    2.19    0.08 
   0  -7   6    2.20    0.09 
   0   7   7    0.27    0.04 
   0  -7   7    0.19    0.04 
   0   8   0    0.12    0.02 
   0   8   0    0.09    0.02 
   0   8  -1    2.71    0.08 
   0   8   1    2.61    0.08 
   0   8   2    1.29    0.05 
   0   8  -2    1.39    0.06 
   0   8   3    0.73    0.04 
   0   8  -3    0.70    0.04 
   0  -8   3    0.75    0.04 
   0   8  -4    0.81    0.05 
   0   8   4    0.86    0.05 
   0  -8   4    0.80    0.05 
   0   8   5    0.03    0.02 
   0   8  -5    0.02    0.02 
   0  -8   5   -0.01    0.02 
   0   8  -6    0.35    0.04 
   0   8   6    0.33    0.04 
   0  -8   6    0.37    0.05 
   0   8   7    0.09    0.03 
   0   9   0    0.02    0.02 
   0   9  -1    0.08    0.02 
   0   9   1    0.07    0.02 
   0   9   1    0.08    0.02 
   0   9   2    2.50    0.08 
   0   9  -2    2.61    0.08 
   0   9   3    0.32    0.03 
   0   9  -3    0.32    0.03 
   0   9  -4    0.03    0.02 
   0   9   4    0.04    0.02 
   0   9   5    0.18    0.03 
   0   9  -5    0.11    0.03 
   0   9   6    0.03    0.03 
   0   9  -6    0.05    0.03 
   0  -9   6    0.04    0.03 
   0  10   0    4.24    0.12 
   0  10   1    0.05    0.02 
   0  10  -1    0.05    0.02 
   0  10  -2    1.45    0.07 
   0  10   2    1.67    0.07 
   0  10   3    1.52    0.07 
   0  10  -3    1.55    0.07 
   0  10  -4    0.02    0.02 
   0  10   4    0.01    0.02 
   0  10  -5    0.27    0.04 
   0  10   5    0.29    0.04 
   0  11   0    0.01    0.02 
   0  11  -1    0.07    0.03 
   0  11   1    0.05    0.02 
   0  11  -2    0.27    0.04 
   0  11   2    0.25    0.03 
   0  11   2    0.28    0.04 
   0  11  -3    0.01    0.02 
   0  11   3   -0.01    0.02 
   0  11   3    0.00    0.02 
   0  11   4    0.07    0.03 
   0  11  -4    0.03    0.02 
   0  12   0    0.00    0.02 
   0  12  -1    0.10    0.03 
   0  12   1    0.07    0.03 
   0  12   2    0.02    0.02 
   0  12  -2   -0.01    0.02 
  -1   0   9    0.01    0.03 
  -1   0   8    0.02    0.03 
  -1   0   7    0.00    0.02 
  -1   0   6    0.18    0.03 
  -1   0   5   -0.01    0.01 
  -1   0   4   15.27    0.25 
  -1   0   3   -0.01    0.01 
  -1   0   2    6.14    0.11 
  -1   0   1    0.03    0.01 
  -1   0   0   11.26    0.17 
  -1   0  -1    0.03    0.01 
  -1   0  -2 1000.00   15.00 
  -1   0  -3    0.01    0.01 
  -1   0  -4   85.03    1.21 
   1   0   5   -0.02    0.02 
  -1   0  -5    0.00    0.02 
   1   0   6    1.00    0.05 
   1   0   7    0.02    0.02 
   1   0   8    0.05    0.03 
   1   0   9   -0.02    0.03 
  -1   1   9   -0.02    0.03 
  -1   1   9    0.00    0.03 
  -1  -1   9   -0.03    0.03 
  -1   1   8    0.75    0.06 
  -1  -1   8    0.82    0.06 
  -1   1   7    0.69    0.05 
  -1  -1   7    0.67    0.05 
  -1   1   6    0.25    0.03 
  -1  -1   6    0.19    0.03 
  -1   1   5    2.73    0.08 
  -1  -1   5    2.66    0.08 
  -1   1   4    0.03    0.01 
  -1  -1   4    0.03    0.02 
  -1   1   3    2.78    0.06 
  -1  -1   3    2.80    0.07 
  -1   1   2   28.08    0.40 
  -1  -1   2   27.73    0.41 
  -1   1   1    1.20    0.03 
  -1   1   1    1.16    0.03 
   1   1  -1    1.18    0.03 
  -1  -1   1    1.12    0.03 
  -1   1   0  134.93    1.94 
  -1  -1   0  135.36    1.95 
  -1   1  -1   49.35    0.65 
  -1   1  -1   48.50    0.69 
  -1  -1  -1   48.97    0.70 
  -1   1  -2  130.25    1.71 
  -1   1  -2  125.52    1.84 
  -1  -1  -2  132.88    1.81 
  -1   1  -3    0.06    0.01 
  -1  -1  -3    0.07    0.01 
  -1   1  -4    4.43    0.10 
  -1  -1  -4    4.47    0.10 
  -1   1  -5    0.42    0.03 
   1   1   5    0.40    0.03 
   1   1   6    0.00    0.02 
   1  -1   6    0.03    0.02 
   1   1   7    1.24    0.06 
   1  -1   7    1.24    0.06 
   1   1   8    0.00    0.02 
   1  -1   8    0.04    0.03 
   1   1   9    0.02    0.03 
   1  -1   9    0.00    0.03 
  -1   2   9    0.02    0.03 
  -1   2   8    0.12    0.03 
  -1  -2   8    0.09    0.03 
  -1   2   7   -0.02    0.02 
  -1   2   7   -0.01    0.02 
  -1  -2   7    0.00    0.02 
  -1   2   6    6.01    0.13 
  -1   2   6    5.94    0.13 
  -1  -2   6    6.03    0.15 
  -1   2   5   -0.01    0.01 
  -1   2   5    0.00    0.01 
  -1  -2   5    0.02    0.02 
  -1   2   4    8.51    0.15 
  -1   2   4    8.35    0.15 
  -1  -2   4    8.40    0.16 
  -1   2   3    4.87    0.09 
  -1   2   3    4.91    0.09 
  -1  -2   3    4.96    0.10 
  -1   2   2    2.19    0.05 
   1   2  -2    2.14    0.05 
  -1   2   2    2.17    0.05 
  -1  -2   2    2.17    0.05 
  -1   2   1   43.55    0.62 
  -1   2   1   43.55    0.58 
   1   2  -1   44.73    0.59 
  -1  -2   1   43.27    0.62 
   1   2   0    0.02    0.01 
  -1   2   0    0.04    0.01 
  -1   2   0    0.02    0.00 
   1   2   0    0.03    0.01 
  -1  -2   0    0.03    0.01 
  -1   2  -1   49.11    0.64 
   1   2   1   48.34    0.64 
  -1   2  -1   48.42    0.68 
  -1  -2  -1   47.67    0.69 
   1   2   2    7.60    0.12 
  -1   2  -2    7.57    0.13 
  -1   2  -2    7.73    0.12 
  -1  -2  -2    7.79    0.12 
  -1   2  -3    5.45    0.11 
   1   2   3    5.64    0.10 
  -1  -2  -3    5.68    0.10 
  -1   2  -4    3.00    0.08 
   1   2   4    2.84    0.07 
   1   2   4    2.90    0.07 
  -1  -2  -4    2.93    0.07 
   1   2   5    0.03    0.02 
   1   2   5    0.01    0.01 
  -1   2  -5    0.01    0.01 
   1   2   6    0.01    0.02 
   1   2   6    0.03    0.02 
   1  -2   6    0.00    0.02 
   1   2   7    0.03    0.02 
   1   2   7    0.04    0.02 
   1  -2   7    0.02    0.02 
   1   2   8   -0.01    0.02 
   1  -2   8    0.02    0.03 
   1   2   9    0.06    0.03 
  -1   3   9    0.09    0.03 
  -1   3   8    1.69    0.07 
  -1  -3   8    1.71    0.09 
  -1   3   7    0.00    0.02 
  -1  -3   7   -0.01    0.02 
  -1   3   6    1.18    0.05 
  -1   3   6    1.17    0.05 
  -1  -3   6    1.22    0.06 
  -1   3   5    0.06    0.02 
  -1   3   5    0.01    0.01 
  -1  -3   5   -0.01    0.02 
  -1   3   4    0.36    0.03 
  -1   3   4    0.37    0.03 
  -1  -3   4    0.33    0.03 
  -1   3   3    1.68    0.05 
   1   3  -3    1.62    0.05 
  -1   3   3    1.70    0.04 
  -1  -3   3    1.69    0.05 
  -1   3   2    0.88    0.03 
  -1   3   2    0.94    0.02 
   1   3  -2    0.90    0.03 
   1   3  -2    0.91    0.02 
  -1  -3   2    0.94    0.03 
  -1   3   1   43.21    0.60 
   1   3  -1   42.55    0.58 
  -1   3   1   41.28    0.57 
   1   3  -1   41.85    0.57 
  -1  -3   1   41.73    0.60 
  -1   3   0    0.09    0.01 
   1   3   0    0.06    0.01 
   1   3   0    0.06    0.01 
  -1   3   0    0.06    0.01 
  -1  -3   0    0.10    0.01 
   1   3   1   15.61    0.22 
  -1   3  -1   15.77    0.24 
  -1   3  -1   15.83    0.23 
  -1   3  -2    0.10    0.01 
   1   3   2    0.11    0.01 
  -1   3  -2    0.11    0.01 
  -1  -3  -2    0.12    0.01 
  -1   3  -3    0.73    0.03 
   1   3   3    0.70    0.03 
   1   3   3    0.73    0.03 
  -1   3  -3    0.74    0.03 
  -1   3  -4    0.36    0.03 
   1   3   4    0.37    0.02 
   1   3   4    0.43    0.03 
  -1   3  -5    1.25    0.05 
   1   3   5    1.29    0.05 
   1   3   5    1.23    0.05 
   1  -3   5    1.12    0.05 
   1   3   6    0.73    0.04 
   1  -3   6    0.60    0.04 
   1   3   7    0.03    0.02 
   1  -3   7    0.08    0.03 
   1   3   8    0.03    0.02 
   1  -3   8    0.04    0.03 
   1   3   9   -0.01    0.03 
  -1   4   8   -0.01    0.02 
  -1  -4   8   -0.02    0.03 
  -1   4   7    0.03    0.02 
  -1  -4   7    0.04    0.03 
  -1   4   6    0.02    0.02 
  -1  -4   6   -0.03    0.02 
  -1   4   5    0.01    0.02 
  -1  -4   5   -0.02    0.02 
   1   4  -4    2.16    0.07 
  -1   4   4    2.13    0.06 
  -1   4   4    2.25    0.06 
  -1  -4   4    2.06    0.07 
   1   4  -3    0.41    0.03 
  -1   4   3    0.44    0.03 
  -1   4   3    0.43    0.02 
  -1  -4   3    0.36    0.03 
  -1   4   2   21.36    0.30 
   1   4  -2   20.83    0.29 
  -1   4   2   20.44    0.30 
   1   4  -2   20.23    0.30 
  -1  -4   2   20.11    0.32 
  -1   4   1    0.12    0.01 
   1   4  -1    0.14    0.01 
  -1   4   1    0.13    0.01 
   1   4  -1    0.10    0.01 
  -1  -4   1    0.11    0.01 
  -1   4   0   17.37    0.26 
  -1   4   0   17.91    0.26 
   1   4   0   17.62    0.25 
   1   4   0   17.69    0.26 
  -1  -4   0   17.81    0.26 
  -1   4  -1   27.42    0.39 
  -1   4  -1   27.88    0.41 
   1   4   1   28.08    0.39 
  -1   4  -2    3.95    0.08 
  -1   4  -2    4.08    0.08 
   1   4   2    3.86    0.08 
   1   4   3    8.13    0.14 
  -1   4  -3    8.08    0.15 
  -1   4  -3    8.05    0.14 
   1   4   3    8.39    0.13 
  -1   4  -4    1.26    0.05 
   1   4   4    1.21    0.04 
  -1   4  -4    1.18    0.05 
  -1   4  -5    0.11    0.02 
   1   4   5    0.06    0.02 
   1  -4   5    0.09    0.03 
   1   4   6    0.23    0.03 
   1  -4   6    0.29    0.04 
   1   4   7    0.00    0.02 
   1  -4   7    0.01    0.02 
   1   4   8    0.02    0.02 
   1  -4   8    0.03    0.03 
  -1   5   8    0.00    0.02 
  -1  -5   8   -0.02    0.03 
  -1   5   7    0.38    0.04 
  -1  -5   7    0.48    0.05 
  -1   5   6    0.71    0.04 
  -1  -5   6    0.73    0.05 
  -1   5   5    1.19    0.05 
  -1  -5   5    1.22    0.06 
   1   5  -4    0.54    0.04 
  -1   5   4    0.56    0.03 
  -1  -5   4    0.54    0.04 
  -1   5   3    0.74    0.04 
   1   5  -3    0.79    0.04 
  -1  -5   3    0.77    0.04 
  -1   5   2    3.92    0.09 
  -1   5   2    4.03    0.06 
   1   5  -2    4.10    0.07 
   1   5  -2    3.92    0.09 
  -1  -5   2    4.04    0.09 
   1   5  -1    0.06    0.01 
  -1   5   1    0.07    0.01 
  -1   5   1    0.07    0.01 
   1   5  -1    0.06    0.01 
  -1  -5   1    0.05    0.01 
  -1   5   0   31.49    0.45 
  -1   5   0   30.60    0.44 
   1   5   0   31.95    0.45 
   1   5   0   31.37    0.44 
  -1  -5   0   32.14    0.45 
   1   5   1    1.37    0.04 
  -1   5  -1    1.30    0.04 
  -1   5  -1    1.31    0.04 
   1   5   2   13.53    0.21 
  -1   5  -2   13.26    0.21 
  -1   5  -2   13.31    0.22 
  -1   5  -3    1.89    0.06 
  -1   5  -3    2.03    0.06 
   1   5   3    2.11    0.06 
  -1   5  -4    3.41    0.09 
  -1   5  -4    3.39    0.09 
   1   5   4    3.35    0.08 
  -1   5  -5    0.79    0.05 
   1   5   5    0.78    0.04 
   1  -5   5    0.83    0.05 
   1   5   6    0.01    0.02 
   1  -5   6   -0.03    0.02 
   1   5   7    0.00    0.02 
   1  -5   7    0.01    0.03 
   1   5   8    0.05    0.03 
  -1   6   8    0.19    0.04 
  -1   6   7    0.08    0.03 
  -1  -6   7    0.09    0.03 
  -1   6   6    3.41    0.10 
  -1  -6   6    3.26    0.11 
  -1   6   5    1.09    0.05 
   1   6  -5    1.10    0.05 
  -1  -6   5    1.15    0.06 
   1   6  -4    0.79    0.05 
  -1   6   4    0.82    0.04 
  -1  -6   4    0.82    0.05 
   1   6  -3    1.38    0.05 
  -1   6   3    1.41    0.05 
  -1  -6   3    1.39    0.05 
  -1   6   2    1.01    0.04 
   1   6  -2    1.02    0.04 
  -1  -6   2    0.96    0.04 
   1   6  -1    4.34    0.09 
  -1   6   1    4.32    0.09 
   1   6  -1    4.28    0.09 
  -1  -6   1    4.21    0.09 
   1   6   0    2.00    0.06 
  -1   6   0    1.97    0.06 
   1   6   0    1.96    0.05 
  -1   6   0    2.02    0.04 
   1   6   1    0.14    0.02 
  -1   6  -1    0.16    0.02 
  -1   6  -1    0.16    0.02 
  -1   6  -2   24.75    0.37 
   1   6   2   24.87    0.36 
  -1   6  -2   24.24    0.38 
  -1   6  -3    0.68    0.04 
   1   6   3    0.63    0.04 
  -1   6  -3    0.65    0.04 
  -1   6  -4    3.32    0.09 
  -1   6  -4    3.45    0.09 
   1   6   4    3.35    0.09 
   1  -6   4    3.37    0.10 
  -1   6  -5    0.68    0.05 
   1   6   5    0.68    0.04 
   1  -6   5    0.74    0.05 
   1   6   6    0.03    0.02 
   1  -6   6    0.01    0.03 
   1   6   7    0.01    0.02 
   1  -6   7    0.04    0.03 
   1   6   8    0.07    0.03 
  -1   7   7    0.56    0.05 
  -1  -7   7    0.35    0.05 
  -1   7   6    1.69    0.07 
  -1  -7   6    1.68    0.08 
  -1   7   5    2.53    0.08 
   1   7  -5    2.56    0.09 
  -1  -7   5    2.55    0.09 
  -1   7   4    3.07    0.09 
   1   7  -4    3.12    0.09 
  -1  -7   4    3.14    0.09 
  -1   7   3    0.65    0.04 
   1   7  -3    0.62    0.04 
  -1  -7   3    0.71    0.04 
  -1   7   2    0.00    0.01 
   1   7  -2    0.02    0.01 
  -1  -7   2   -0.01    0.01 
   1   7  -1    0.24    0.02 
   1   7  -1    0.22    0.02 
  -1   7   1    0.25    0.02 
   1   7   0    1.41    0.05 
  -1   7   0    1.33    0.05 
   1   7   0    1.36    0.05 
  -1   7  -1    0.23    0.02 
   1   7   1    0.27    0.02 
   1   7   1    0.26    0.02 
  -1   7  -1    0.23    0.02 
  -1   7  -2    0.37    0.03 
   1   7   2    0.33    0.03 
  -1   7  -2    0.35    0.03 
   1   7   3    0.06    0.02 
  -1   7  -3    0.04    0.02 
   1  -7   3    0.05    0.02 
   1   7   4    0.19    0.03 
  -1   7  -4    0.16    0.02 
   1  -7   4    0.16    0.03 
  -1   7  -5    0.09    0.02 
   1   7   5    0.05    0.02 
   1  -7   5    0.08    0.03 
   1   7   6   -0.01    0.02 
   1  -7   6    0.01    0.03 
   1   7   7    0.18    0.03 
   1  -7   7    0.13    0.04 
  -1   8   7   -0.01    0.03 
  -1   8   6    3.60    0.11 
  -1  -8   6    3.72    0.12 
   1   8  -5    0.96    0.06 
  -1   8   5    0.82    0.05 
  -1  -8   5    1.10    0.06 
   1   8  -4    2.70    0.09 
  -1   8   4    2.79    0.09 
  -1  -8   4    2.90    0.09 
   1   8  -3    0.05    0.02 
  -1   8   3    0.06    0.02 
   1   8  -2    1.42    0.06 
  -1   8   2    1.27    0.06 
   1   8  -1    0.15    0.02 
  -1   8   1    0.08    0.02 
   1   8   0    2.55    0.07 
  -1   8   0    2.47    0.08 
   1   8   0    2.52    0.08 
   1   8   1    1.94    0.07 
  -1   8  -1    2.10    0.07 
   1   8   1    2.03    0.07 
   1   8   2    0.21    0.03 
  -1   8  -2    0.20    0.03 
  -1   8  -3    1.15    0.06 
   1   8   3    1.14    0.05 
   1  -8   3    1.08    0.05 
   1   8   4    0.06    0.02 
  -1   8  -4    0.07    0.02 
   1  -8   4    0.02    0.02 
  -1   8  -5    0.38    0.04 
   1   8   5    0.33    0.03 
   1  -8   5    0.39    0.04 
   1   8   6    0.15    0.03 
  -1   8  -6    0.12    0.03 
   1  -8   6    0.17    0.04 
   1   8   7    0.04    0.03 
  -1   9   6    0.10    0.03 
   1   9  -6    0.09    0.03 
  -1  -9   6    0.10    0.04 
  -1   9   5   -0.04    0.02 
   1   9  -5   -0.01    0.02 
   1   9  -4    0.18    0.03 
  -1   9   4    0.14    0.03 
   1   9  -3    1.63    0.07 
  -1   9   3    1.62    0.07 
  -1   9   2    0.52    0.04 
   1   9  -2    0.46    0.04 
   1   9  -1    4.52    0.11 
  -1   9   1    4.46    0.11 
  -1   9   0    2.62    0.08 
   1   9   0    2.56    0.08 
   1   9   1    0.52    0.04 
   1   9   1    0.49    0.04 
  -1   9  -1    0.45    0.04 
  -1   9  -2    0.78    0.05 
   1   9   2    0.81    0.05 
   1   9   2    0.84    0.05 
  -1   9  -3    0.70    0.05 
   1   9   3    0.66    0.04 
   1   9   4    0.88    0.05 
  -1   9  -4    1.02    0.06 
  -1   9  -5    0.11    0.03 
   1   9   5    0.07    0.03 
  -1   9  -6    0.00    0.03 
   1   9   6    0.02    0.03 
   1  -9   6    0.02    0.03 
   1  10  -5    0.01    0.02 
  -1  10   5    0.02    0.03 
   1  10  -4    0.54    0.05 
  -1  10   4    0.61    0.05 
  -1  10   3    0.20    0.03 
   1  10  -3    0.17    0.03 
   1  10  -2    0.16    0.03 
  -1  10   2    0.17    0.03 
  -1  10   1    1.66    0.07 
   1  10  -1    1.69    0.07 
  -1  10   0    0.42    0.04 
   1  10   0    0.41    0.04 
   1  10   1    0.15    0.03 
  -1  10  -1    0.08    0.02 
   1  10   1    0.10    0.02 
   1  10   2    2.35    0.08 
   1  10   2    2.22    0.08 
  -1  10  -2    2.20    0.08 
   1  10   3   -0.01    0.02 
   1  10   3   -0.01    0.02 
  -1  10  -3    0.04    0.02 
  -1  10  -4    1.39    0.07 
   1  10   4    1.33    0.07 
   1  10   4    1.37    0.07 
  -1  10  -5    0.60    0.05 
   1  10   5    0.65    0.05 
  -1  11   4    0.25    0.04 
   1  11  -4    0.31    0.04 
   1  11  -3    0.09    0.03 
  -1  11   3    0.10    0.03 
   1  11  -2    0.01    0.02 
  -1  11   2    0.00    0.02 
   1  11  -1    0.00    0.02 
  -1  11   1   -0.01    0.02 
   1  11   0    0.30    0.04 
  -1  11   0    0.32    0.04 
   1  11   1    0.04    0.02 
  -1  11  -1    0.02    0.02 
   1  11   2    0.11    0.03 
  -1  11  -2    0.13    0.03 
   1  11   2    0.14    0.03 
   1  11   3   -0.01    0.02 
  -1  11  -3    0.03    0.02 
   1  11   3   -0.01    0.02 
  -1  11  -4    0.03    0.02 
   1  11   4    0.04    0.03 
   1  11   4    0.02    0.02 
   1  12  -2    0.04    0.02 
  -1  12   2    0.00    0.02 
  -1  12   1   -0.01    0.02 
   1  12  -1    0.01    0.02 
  -1  12   0    0.02    0.02 
   1  12   0   -0.02    0.02 
  -1  12  -1   -0.01    0.02 
   1  12   1   -0.01    0.02 
  -1  12  -2    0.00    0.02 
   1  12   2   -0.02    0.02 
  -2   0   9    0.00    0.03 
  -2   0   8    0.56    0.05 
  -2   0   7    0.01    0.02 
  -2   0   6    1.27    0.06 
  -2   0   5    0.00    0.01 
  -2   0   4    0.31    0.03 
  -2   0   3   -0.01    0.01 
  -2   0   2   37.81    0.55 
  -2   0   1    0.18    0.01 
  -2   0   0    0.73    0.02 
   2   0   0    0.72    0.02 
   2   0   1    0.01    0.01 
  -2   0  -1    0.01    0.00 
  -2   0  -2   39.98    0.57 
   2   0   2   39.34    0.55 
  -2   0  -3    0.00    0.01 
  -2   0  -4   59.67    0.86 
  -2   0  -5   -0.01    0.01 
  -2   0  -6   17.57    0.31 
   2   0   7    0.01    0.02 
   2   0   8    0.04    0.03 
   2   0   9    0.02    0.03 
  -2   1   9    0.02    0.03 
  -2   1   9    0.01    0.03 
  -2  -1   9   -0.02    0.03 
  -2   1   8    0.09    0.03 
  -2  -1   8    0.05    0.03 
  -2   1   7    0.06    0.02 
  -2  -1   7    0.09    0.03 
  -2   1   6    1.13    0.06 
  -2  -1   6    1.04    0.06 
  -2   1   5    4.92    0.11 
  -2  -1   5    5.02    0.12 
  -2   1   4    7.30    0.14 
  -2  -1   4    7.18    0.14 
  -2   1   3   29.12    0.43 
  -2  -1   3   29.26    0.44 
  -2   1   2    0.14    0.01 
  -2  -1   2    0.21    0.02 
   2   1  -1    0.18    0.01 
  -2   1   1    0.19    0.01 
  -2   1   1    0.20    0.01 
  -2  -1   1    0.20    0.02 
   2   1   0   53.43    0.73 
  -2   1   0   52.83    0.76 
  -2  -1   0   53.38    0.75 
  -2   1  -1   16.47    0.25 
  -2   1  -1   16.84    0.23 
   2   1   1   17.08    0.25 
  -2  -1  -1   16.88    0.25 
   2   1   2   24.30    0.35 
  -2   1  -2   23.97    0.36 
  -2   1  -2   24.37    0.33 
   2  -1   2   24.19    0.34 
  -2  -1  -2   23.73    0.35 
  -2   1  -3   29.05    0.44 
  -2  -1  -3   30.25    0.44 
   2  -1   3   30.02    0.42 
  -2   1  -4   65.93    0.94 
  -2  -1  -4   64.68    0.94 
  -2   1  -5    0.19    0.02 
  -2  -1  -5    0.12    0.02 
  -2   1  -6    0.40    0.04 
   2   1   6    0.37    0.03 
  -2  -1  -6    0.42    0.04 
   2   1   7    0.01    0.02 
   2  -1   7    0.04    0.02 
   2   1   8    0.07    0.03 
   2  -1   8    0.03    0.03 
   2   1   9    0.11    0.03 
  -2   2   9    0.02    0.03 
  -2   2   8    0.34    0.04 
  -2  -2   8    0.30    0.04 
  -2   2   7    0.01    0.02 
  -2   2   7    0.04    0.02 
  -2  -2   7    0.06    0.03 
  -2   2   6    4.34    0.11 
  -2   2   6    4.32    0.11 
  -2  -2   6    4.35    0.12 
  -2   2   5    0.07    0.02 
  -2   2   5    0.08    0.02 
  -2  -2   5    0.07    0.02 
  -2   2   4    8.52    0.16 
  -2   2   4    8.82    0.15 
  -2  -2   4    8.68    0.17 
  -2   2   3    3.63    0.08 
  -2   2   3    3.75    0.08 
  -2  -2   3    3.69    0.09 
   2   2  -2   40.65    0.55 
  -2   2   2   41.70    0.59 
  -2   2   2   40.91    0.56 
  -2  -2   2   40.50    0.59 
   2   2  -1    2.91    0.05 
  -2   2   1    2.89    0.06 
   2   2  -1    2.87    0.06 
  -2   2   1    2.87    0.05 
  -2  -2   1    2.83    0.06 
   2   2   0   13.70    0.19 
   2   2   0   14.22    0.21 
  -2   2   0   13.70    0.21 
  -2   2   0   13.41    0.19 
  -2  -2   0   13.66    0.20 
   2   2   1   36.42    0.51 
  -2   2  -1   36.93    0.53 
   2   2   1   36.27    0.49 
  -2   2  -1   37.00    0.49 
  -2  -2  -1   36.45    0.52 
   2   2   2    0.09    0.01 
  -2   2  -2    0.09    0.01 
  -2   2  -2    0.09    0.01 
  -2  -2  -2    0.08    0.01 
  -2   2  -3   13.92    0.22 
  -2   2  -3   12.84    0.20 
   2   2   3   12.67    0.20 
  -2  -2  -3   12.84    0.21 
   2   2   4    0.55    0.03 
  -2   2  -4    0.52    0.03 
  -2  -2  -4    0.56    0.03 
  -2   2  -5    2.10    0.07 
   2   2   5    2.02    0.06 
  -2  -2  -5    1.99    0.06 
   2   2   6    1.46    0.06 
   2   2   6    1.48    0.06 
  -2   2  -6    1.45    0.06 
   2   2   7    0.01    0.02 
   2   2   7    0.01    0.02 
   2  -2   7    0.02    0.02 
   2   2   8    0.01    0.02 
   2  -2   8    0.03    0.03 
   2   2   9    0.02    0.03 
  -2   3   9    0.00    0.02 
  -2   3   8   -0.01    0.02 
  -2  -3   8    0.00    0.03 
  -2   3   7    0.33    0.04 
  -2  -3   7    0.44    0.05 
  -2   3   6    4.18    0.11 
  -2   3   6    4.20    0.11 
  -2  -3   6    4.21    0.12 
  -2   3   5    0.21    0.02 
  -2   3   5    0.21    0.02 
  -2  -3   5    0.24    0.03 
  -2   3   4   10.52    0.18 
  -2   3   4   10.17    0.18 
  -2  -3   4   10.28    0.19 
  -2   3   3    2.23    0.05 
  -2   3   3    2.25    0.06 
   2   3  -3    2.22    0.06 
  -2  -3   3    2.27    0.06 
   2   3  -2    0.03    0.01 
   2   3  -2    0.01    0.01 
  -2   3   2    0.01    0.01 
  -2   3   2    0.01    0.01 
  -2  -3   2    0.01    0.01 
   2   3  -1    6.41    0.11 
   2   3  -1    6.40    0.10 
  -2   3   1    6.23    0.11 
  -2   3   1    6.40    0.10 
  -2  -3   1    6.32    0.11 
  -2   3   0    0.94    0.03 
  -2   3   0    0.93    0.03 
   2   3   0    0.91    0.03 
   2   3   0    0.96    0.03 
  -2  -3   0    0.96    0.03 
   2   3   1   20.85    0.29 
  -2   3  -1   20.46    0.31 
  -2   3  -1   20.38    0.29 
  -2  -3  -1   20.96    0.30 
   2   3   2    0.22    0.02 
  -2   3  -2    0.24    0.02 
  -2   3  -2    0.25    0.02 
  -2  -3  -2    0.25    0.01 
  -2   3  -3    1.21    0.04 
  -2   3  -3    1.35    0.05 
   2   3   3    1.21    0.04 
  -2  -3  -3    1.25    0.04 
   2   3   4    0.05    0.01 
  -2   3  -4    0.05    0.02 
  -2   3  -4    0.03    0.01 
  -2  -3  -4    0.03    0.01 
   2   3   5    0.07    0.02 
   2   3   5    0.08    0.02 
  -2   3  -5    0.11    0.02 
  -2  -3  -5    0.06    0.02 
  -2   3  -6    0.05    0.02 
   2   3   6    0.00    0.02 
   2   3   7    0.07    0.02 
   2  -3   7    0.05    0.03 
   2   3   8    0.08    0.03 
   2  -3   8    0.14    0.04 
  -2   4   8    0.20    0.03 
  -2  -4   8    0.19    0.04 
  -2   4   7    0.04    0.02 
  -2  -4   7    0.07    0.03 
  -2   4   6    0.50    0.04 
  -2  -4   6    0.47    0.04 
  -2   4   5    0.02    0.02 
  -2  -4   5    0.02    0.02 
  -2   4   4    1.35    0.05 
  -2   4   4    1.29    0.04 
  -2  -4   4    1.19    0.05 
  -2   4   3    0.62    0.03 
  -2   4   3    0.67    0.03 
   2   4  -3    0.69    0.03 
  -2  -4   3    0.61    0.04 
  -2   4   2    8.52    0.13 
  -2   4   2    8.10    0.14 
   2   4  -2    8.27    0.14 
   2   4  -2    8.42    0.14 
  -2  -4   2    8.25    0.15 
   2   4  -1    4.59    0.09 
  -2   4   1    4.62    0.09 
   2   4  -1    4.75    0.09 
  -2   4   1    4.55    0.08 
  -2  -4   1    4.52    0.09 
  -2   4   0   11.29    0.18 
  -2   4   0   11.51    0.18 
   2   4   0   11.19    0.17 
   2   4   0   11.44    0.18 
  -2  -4   0   11.32    0.17 
  -2   4  -1    0.61    0.03 
   2   4   1    0.65    0.03 
  -2   4  -1    0.70    0.03 
   2   4   1    0.63    0.03 
  -2  -4  -1    0.64    0.02 
   2   4   2   13.02    0.19 
  -2   4  -2   12.68    0.21 
  -2   4  -2   12.74    0.20 
  -2   4  -3    7.20    0.14 
  -2   4  -3    7.18    0.13 
   2   4   3    7.24    0.13 
  -2  -4  -3    7.30    0.12 
  -2   4  -4    0.35    0.03 
   2   4   4    0.30    0.02 
  -2   4  -4    0.26    0.02 
   2   4   5    1.29    0.05 
  -2   4  -5    1.34    0.06 
   2   4   6    1.39    0.06 
  -2   4  -6    1.22    0.06 
   2   4   7    0.06    0.02 
   2  -4   7    0.04    0.03 
   2   4   8    0.03    0.02 
   2  -4   8    0.03    0.03 
  -2   5   8    0.21    0.04 
  -2  -5   8    0.21    0.05 
  -2   5   7    0.07    0.03 
  -2  -5   7    0.04    0.03 
  -2   5   6    0.07    0.02 
  -2  -5   6    0.07    0.03 
  -2   5   5   -0.01    0.01 
  -2  -5   5    0.05    0.02 
  -2   5   4    0.83    0.04 
   2   5  -4    0.83    0.04 
  -2  -5   4    0.83    0.05 
  -2   5   3    0.16    0.02 
   2   5  -3    0.14    0.02 
  -2  -5   3    0.15    0.02 
   2   5  -2    0.45    0.02 
  -2   5   2    0.44    0.02 
   2   5  -2    0.43    0.03 
  -2   5   2    0.44    0.03 
  -2  -5   2    0.41    0.03 
   2   5  -1    0.03    0.01 
  -2   5   1    0.03    0.01 
  -2   5   1    0.03    0.01 
   2   5  -1    0.05    0.01 
  -2  -5   1    0.04    0.01 
  -2   5   0   11.69    0.18 
   2   5   0   11.83    0.19 
  -2   5   0   11.61    0.19 
   2   5   0   11.67    0.18 
  -2  -5   0   11.65    0.18 
  -2   5  -1    1.23    0.04 
  -2   5  -1    1.26    0.04 
   2   5   1    1.27    0.04 
   2   5   1    1.22    0.04 
  -2  -5  -1    1.25    0.03 
   2   5   2    8.29    0.14 
  -2   5  -2    8.24    0.15 
  -2   5  -2    8.13    0.15 
  -2   5  -3    1.61    0.05 
   2   5   3    1.61    0.05 
  -2   5  -3    1.59    0.06 
   2   5   4   10.69    0.18 
  -2   5  -4   10.59    0.20 
  -2   5  -4   10.56    0.19 
  -2   5  -5    0.74    0.04 
   2   5   5    0.80    0.04 
  -2   5  -5    0.78    0.05 
   2   5   6    0.01    0.02 
  -2   5  -6    0.02    0.02 
   2  -5   6    0.03    0.03 
   2   5   7    0.24    0.03 
   2  -5   7    0.24    0.04 
   2   5   8   -0.01    0.02 
  -2   6   8    0.84    0.06 
  -2   6   7    0.06    0.03 
  -2  -6   7    0.06    0.03 
  -2   6   6    2.80    0.09 
  -2  -6   6    2.81    0.10 
  -2   6   5    1.33    0.06 
   2   6  -5    1.14    0.06 
  -2  -6   5    1.22    0.06 
  -2   6   4    5.16    0.12 
   2   6  -4    4.92    0.12 
  -2  -6   4    5.18    0.12 
   2   6  -3    0.02    0.02 
  -2   6   3    0.02    0.02 
  -2  -6   3    0.01    0.02 
  -2   6   2    6.96    0.13 
   2   6  -2    7.07    0.12 
   2   6  -2    6.91    0.13 
  -2  -6   2    6.93    0.13 
   2   6  -1    0.41    0.03 
  -2   6   1    0.39    0.03 
   2   6  -1    0.39    0.03 
  -2  -6   1    0.40    0.03 
   2   6   0    0.53    0.03 
  -2   6   0    0.59    0.03 
   2   6   0    0.51    0.03 
  -2   6   0    0.50    0.02 
   2   6   1    3.06    0.07 
   2   6   1    3.02    0.08 
  -2   6  -1    2.98    0.07 
  -2   6  -1    3.03    0.08 
  -2   6  -2    0.15    0.02 
  -2   6  -2    0.13    0.02 
   2   6   2    0.15    0.02 
   2   6   2    0.15    0.02 
  -2   6  -3    0.03    0.01 
   2   6   3    0.03    0.01 
  -2   6  -3    0.01    0.01 
   2   6   4    1.81    0.06 
  -2   6  -4    1.85    0.07 
  -2   6  -4    1.90    0.07 
  -2   6  -5    0.32    0.03 
  -2   6  -5    0.30    0.03 
   2   6   5    0.37    0.03 
   2   6   6    0.72    0.04 
   2  -6   6    0.65    0.05 
   2   6   7    0.11    0.03 
   2  -6   7    0.08    0.03 
  -2   7   7    1.29    0.07 
  -2  -7   7    1.29    0.08 
  -2   7   6    3.02    0.10 
  -2  -7   6    3.04    0.11 
  -2   7   5    1.88    0.07 
   2   7  -5    1.80    0.07 
  -2  -7   5    1.94    0.08 
  -2   7   4   16.74    0.28 
   2   7  -4   16.78    0.29 
  -2  -7   4   17.26    0.30 
  -2   7   3    8.26    0.16 
   2   7  -3    8.29    0.16 
  -2  -7   3    8.52    0.17 
   2   7  -2    0.36    0.03 
  -2   7   2    0.33    0.03 
  -2  -7   2    0.34    0.03 
  -2   7   1    5.80    0.12 
   2   7  -1    6.31    0.12 
   2   7  -1    5.94    0.12 
   2   7   0    0.08    0.02 
   2   7   0    0.09    0.02 
  -2   7   0    0.06    0.02 
  -2   7  -1    0.01    0.01 
  -2   7  -1    0.01    0.01 
   2   7   1   -0.01    0.01 
   2   7   1    0.01    0.01 
  -2   7  -2    1.69    0.06 
  -2   7  -2    1.66    0.06 
   2   7   2    1.63    0.06 
   2   7   2    1.73    0.06 
  -2   7  -3    0.13    0.02 
   2   7   3    0.16    0.02 
  -2   7  -3    0.14    0.02 
  -2   7  -4    0.44    0.04 
   2   7   4    0.39    0.03 
  -2   7  -4    0.42    0.03 
  -2   7  -5    0.00    0.02 
   2   7   5    0.04    0.02 
  -2   7  -5    0.04    0.02 
   2  -7   5    0.02    0.03 
   2   7   6    0.08    0.02 
  -2   7  -6    0.07    0.03 
   2  -7   6    0.06    0.03 
   2   7   7    0.02    0.03 
   2  -7   7   -0.02    0.03 
  -2   8   7   -0.04    0.02 
  -2   8   6    1.37    0.07 
  -2  -8   6    1.23    0.07 
   2   8  -5    0.01    0.02 
  -2   8   5    0.00    0.02 
  -2  -8   5    0.02    0.03 
   2   8  -4    3.15    0.10 
  -2   8   4    3.01    0.09 
  -2  -8   4    3.24    0.10 
   2   8  -3    4.29    0.11 
  -2   8   3    4.42    0.11 
   2   8  -2    5.55    0.13 
  -2   8   2    5.75    0.13 
   2   8  -1    0.06    0.02 
  -2   8   1    0.03    0.02 
   2   8   0    0.63    0.04 
   2   8   0    0.53    0.04 
  -2   8   0    0.68    0.04 
  -2   8  -1    0.45    0.04 
   2   8   1    0.50    0.04 
   2   8   1    0.50    0.03 
   2   8   2    0.91    0.04 
   2   8   2    0.93    0.05 
  -2   8  -2    1.05    0.05 
   2   8   3    0.45    0.03 
  -2   8  -3    0.46    0.03 
   2   8   3    0.44    0.04 
  -2   8  -3    0.52    0.04 
   2   8   4    0.11    0.02 
  -2   8  -4    0.14    0.03 
   2   8   4    0.08    0.03 
  -2   8  -4    0.12    0.03 
   2  -8   4    0.10    0.03 
   2   8   5    0.22    0.03 
  -2   8  -5    0.27    0.04 
   2  -8   5    0.22    0.04 
  -2   8  -6    0.05    0.03 
   2   8   6    0.08    0.03 
   2  -8   6    0.02    0.03 
   2   8   7   -0.03    0.02 
  -2   9   6    0.77    0.06 
  -2  -9   6    0.59    0.06 
   2   9  -5    0.02    0.02 
  -2   9   5    0.01    0.02 
   2   9  -4    0.41    0.04 
  -2   9   4    0.40    0.04 
  -2   9   3    0.03    0.02 
   2   9  -3    0.03    0.02 
  -2   9   2    0.20    0.03 
   2   9  -2    0.23    0.03 
  -2   9   1    3.61    0.10 
   2   9  -1    3.51    0.10 
   2   9   0    0.90    0.05 
   2   9   0    0.88    0.05 
  -2   9   0    0.94    0.05 
   2   9   1    7.54    0.16 
   2   9   1    7.66    0.16 
  -2   9  -1    7.82    0.16 
   2   9   2    0.91    0.05 
   2   9   2    0.94    0.05 
  -2   9  -2    0.94    0.05 
   2   9   3    1.29    0.06 
   2   9   3    1.28    0.06 
  -2   9  -3    1.25    0.06 
   2   9   4    1.16    0.06 
   2   9   4    1.28    0.06 
  -2   9  -4    1.25    0.06 
  -2   9  -5    0.38    0.04 
   2   9   5    0.41    0.04 
   2   9   5    0.34    0.04 
   2  -9   5    0.40    0.05 
   2   9   6    0.10    0.03 
  -2   9  -6    0.11    0.03 
   2   9   6    0.07    0.03 
   2  -9   6    0.20    0.04 
  -2  10   5    0.07    0.03 
   2  10  -5    0.10    0.03 
   2  10  -4    0.67    0.05 
  -2  10   4    0.69    0.05 
  -2  10   3    0.03    0.02 
   2  10  -3    0.07    0.02 
  -2  10   2    1.51    0.07 
   2  10  -2    1.61    0.07 
  -2  10   1    0.00    0.02 
   2  10  -1   -0.02    0.02 
   2  10   0    0.31    0.03 
  -2  10   0    0.28    0.03 
   2  10   1    0.57    0.04 
  -2  10  -1    0.59    0.05 
   2  10   1    0.55    0.04 
   2  10   2    0.03    0.02 
   2  10   2    0.02    0.02 
  -2  10  -2    0.08    0.02 
   2  10   3    0.06    0.02 
  -2  10  -3    0.04    0.02 
   2  10   3    0.03    0.02 
   2  10   4    0.20    0.03 
  -2  10  -4    0.20    0.03 
   2  10   4    0.24    0.03 
  -2  10  -5    0.03    0.03 
   2  10   5   -0.01    0.02 
   2  10   5    0.00    0.02 
  -2  11   4    0.05    0.03 
   2  11  -4    0.05    0.03 
   2  11  -3   -0.01    0.02 
  -2  11   3    0.01    0.02 
   2  11  -2    0.04    0.02 
  -2  11   2    0.01    0.02 
   2  11  -1    0.19    0.03 
  -2  11   1    0.23    0.03 
  -2  11   0    0.02    0.02 
   2  11   0    0.02    0.02 
  -2  11  -1    0.03    0.02 
   2  11   1    0.00    0.02 
   2  11   2    0.14    0.03 
   2  11   2    0.15    0.03 
  -2  11  -2    0.20    0.03 
   2  11   3    0.01    0.02 
  -2  11  -3    0.00    0.02 
   2  11   3   -0.01    0.02 
   2  11   4    0.19    0.04 
   2  11   4    0.19    0.03 
  -2  11  -4    0.21    0.04 
  -2  12   2    1.63    0.08 
   2  12  -2    1.77    0.08 
  -2  12   1    0.70    0.06 
   2  12  -1    0.66    0.05 
   2  12   0    0.07    0.03 
  -2  12   0    0.05    0.03 
   2  12   1    0.10    0.03 
  -2  12  -1    0.07    0.03 
   2  12   2    0.06    0.03 
  -2  12  -2    0.01    0.03 
  -3   0   9    0.00    0.03 
  -3   0   8    0.92    0.06 
  -3   0   7   -0.03    0.02 
  -3   0   6    1.07    0.06 
  -3   0   5    0.02    0.02 
  -3   0   4    3.53    0.09 
  -3   0   3    0.01    0.01 
  -3   0   2    1.88    0.05 
  -3   0   1    0.01    0.01 
  -3   0   0   14.19    0.22 
   3   0   0   14.47    0.21 
   3   0   1    0.07    0.01 
  -3   0  -1    0.01    0.01 
   3   0   2    5.59    0.10 
  -3   0  -2    5.57    0.10 
   3   0   3    0.00    0.01 
  -3   0  -3    0.00    0.01 
   3   0   4   24.11    0.35 
  -3   0  -4   23.56    0.37 
  -3   0  -5    0.00    0.01 
   3   0   5    0.02    0.01 
  -3   0  -6    0.03    0.02 
  -3   0  -7    0.00    0.02 
   3   0   8    2.05    0.09 
  -3   1   9    0.20    0.04 
  -3   1   9    0.20    0.04 
  -3   1   8    0.00    0.02 
  -3  -1   8    0.02    0.03 
  -3   1   7    0.30    0.04 
  -3  -1   7    0.22    0.03 
  -3   1   6    1.15    0.06 
  -3  -1   6    1.23    0.06 
  -3   1   5    1.17    0.05 
  -3  -1   5    1.19    0.06 
  -3   1   4    0.06    0.02 
  -3  -1   4    0.08    0.02 
  -3   1   3   24.35    0.37 
  -3  -1   3   24.28    0.38 
  -3   1   2   29.32    0.40 
  -3   1   2   28.64    0.43 
  -3  -1   2   29.18    0.43 
   3   1  -1   63.23    0.87 
  -3   1   1   63.22    0.89 
  -3   1   1   62.42    0.84 
  -3   1   0    0.18    0.01 
   3   1   0    0.20    0.02 
  -3  -1   0    0.17    0.01 
  -3   1  -1    1.50    0.04 
   3   1   1    1.53    0.04 
  -3   1  -1    1.54    0.03 
  -3  -1  -1    1.48    0.04 
   3  -1   1    1.51    0.04 
   3   1   2    8.55    0.14 
  -3   1  -2    8.52    0.13 
  -3   1  -2    8.42    0.15 
  -3  -1  -2    8.54    0.14 
   3  -1   2    8.53    0.13 
  -3   1  -3    5.89    0.12 
   3   1   3    5.93    0.11 
  -3  -1  -3    6.00    0.11 
   3  -1   3    6.04    0.10 
  -3   1  -4    0.20    0.02 
   3   1   4    0.20    0.02 
   3  -1   4    0.17    0.02 
  -3  -1  -4    0.18    0.02 
   3   1   5    7.02    0.14 
  -3   1  -5    6.87    0.15 
  -3  -1  -5    6.99    0.14 
  -3   1  -6   14.09    0.26 
   3   1   6   14.01    0.24 
  -3  -1  -6   14.37    0.26 
   3   1   7    0.20    0.03 
  -3   1  -7    0.20    0.03 
  -3  -1  -7    0.14    0.03 
   3   1   8    0.98    0.06 
   3  -1   8    0.96    0.07 
  -3   2   9    0.00    0.03 
  -3   2   8    0.04    0.03 
  -3   2   8    0.04    0.03 
  -3  -2   8    0.05    0.03 
  -3   2   7   -0.01    0.02 
  -3   2   7    0.00    0.02 
  -3  -2   7   -0.01    0.02 
  -3   2   6    0.30    0.03 
  -3   2   6    0.36    0.03 
  -3  -2   6    0.32    0.04 
  -3   2   5    0.03    0.02 
  -3   2   5    0.02    0.02 
  -3  -2   5    0.02    0.02 
  -3   2   4   38.33    0.57 
  -3   2   4   38.46    0.54 
  -3  -2   4   38.47    0.58 
  -3   2   3    0.79    0.03 
  -3   2   3    0.74    0.03 
  -3  -2   3    0.76    0.04 
  -3   2   2    1.64    0.04 
  -3   2   2    1.72    0.04 
  -3  -2   2    1.64    0.05 
  -3   2   1   24.85    0.34 
   3   2  -1   24.68    0.34 
   3   2  -1   24.84    0.36 
  -3   2   1   24.57    0.36 
  -3  -2   1   24.03    0.36 
  -3   2   0   34.12    0.49 
   3   2   0   34.07    0.48 
  -3   2   0   33.15    0.45 
  -3  -2   0   32.86    0.48 
   3   2   1    0.10    0.01 
  -3   2  -1    0.08    0.01 
  -3   2  -1    0.07    0.01 
  -3  -2  -1    0.10    0.01 
  -3   2  -2   10.15    0.15 
   3   2   2    9.96    0.15 
   3   2   2    9.74    0.17 
  -3   2  -2    9.82    0.17 
   3  -2   2   10.00    0.15 
  -3  -2  -2   10.11    0.16 
   3   2   3    3.24    0.06 
  -3   2  -3    3.12    0.08 
  -3   2  -3    3.31    0.07 
   3   2   3    3.05    0.07 
  -3  -2  -3    3.15    0.07 
   3  -2   3    3.17    0.06 
   3   2   4    0.18    0.02 
  -3   2  -4    0.31    0.03 
   3   2   4    0.28    0.02 
  -3  -2  -4    0.25    0.02 
  -3   2  -5    1.17    0.05 
   3   2   5    1.09    0.05 
   3   2   5    1.10    0.05 
  -3  -2  -5    1.20    0.05 
   3   2   6    0.06    0.02 
   3   2   6    0.07    0.02 
  -3   2  -6    0.04    0.02 
  -3  -2  -6    0.09    0.02 
   3   2   7    0.64    0.04 
   3   2   7    0.68    0.05 
  -3   2  -7    0.68    0.05 
   3  -2   8    0.17    0.04 
  -3   3   9    0.07    0.03 
  -3   3   8    0.00    0.02 
  -3  -3   8    0.01    0.03 
  -3   3   7    0.07    0.02 
  -3  -3   7    0.05    0.03 
  -3   3   6    0.33    0.03 
  -3   3   6    0.33    0.03 
  -3  -3   6    0.34    0.04 
  -3   3   5    0.95    0.05 
  -3   3   5    0.90    0.05 
  -3  -3   5    0.93    0.05 
  -3   3   4    3.30    0.08 
  -3   3   4    3.13    0.08 
  -3  -3   4    3.34    0.09 
  -3   3   3    2.33    0.06 
  -3   3   3    2.26    0.06 
  -3  -3   3    2.23    0.07 
   3   3  -2   27.76    0.40 
  -3   3   2   27.44    0.39 
  -3   3   2   28.33    0.41 
   3   3  -2   28.11    0.39 
  -3  -3   2   28.44    0.42 
  -3   3   1   12.44    0.19 
   3   3  -1   12.68    0.19 
  -3   3   1   12.77    0.20 
   3   3  -1   12.13    0.20 
  -3  -3   1   12.27    0.20 
  -3   3   0    1.49    0.04 
   3   3   0    1.55    0.04 
   3   3   0    1.52    0.04 
  -3   3   0    1.46    0.04 
  -3  -3   0    1.58    0.04 
  -3   3  -1    1.64    0.04 
  -3   3  -1    1.62    0.05 
   3   3   1    1.58    0.05 
   3   3   1    1.63    0.04 
  -3  -3  -1    1.66    0.04 
  -3   3  -2    1.08    0.04 
   3   3   2    1.07    0.03 
  -3   3  -2    1.08    0.03 
   3   3   2    1.01    0.04 
  -3  -3  -2    1.06    0.03 
  -3   3  -3    0.74    0.03 
   3   3   3    0.74    0.04 
   3   3   3    0.78    0.03 
  -3   3  -3    0.79    0.04 
  -3  -3  -3    0.77    0.03 
   3   3   4    0.26    0.03 
  -3   3  -4    0.32    0.03 
   3   3   4    0.25    0.02 
  -3   3  -4    0.25    0.02 
  -3  -3  -4    0.33    0.02 
   3   3   5    0.35    0.03 
   3   3   5    0.33    0.03 
  -3   3  -5    0.32    0.03 
  -3  -3  -5    0.35    0.03 
  -3   3  -6    0.03    0.02 
   3   3   6    0.00    0.02 
   3   3   6    0.01    0.02 
   3   3   7    0.15    0.03 
   3   3   7    0.20    0.03 
  -3   3  -7    0.16    0.03 
   3  -3   8    0.02    0.03 
  -3   4   8    0.12    0.03 
  -3  -4   8    0.13    0.04 
  -3   4   7    0.21    0.03 
  -3  -4   7    0.21    0.04 
  -3   4   6    0.50    0.04 
  -3  -4   6    0.53    0.05 
  -3   4   5    0.02    0.01 
  -3   4   5    0.02    0.02 
  -3  -4   5    0.05    0.02 
  -3   4   4    2.38    0.07 
  -3   4   4    2.31    0.06 
  -3  -4   4    2.53    0.08 
  -3   4   3    0.28    0.02 
  -3   4   3    0.28    0.02 
   3   4  -3    0.29    0.02 
  -3  -4   3    0.27    0.03 
   3   4  -2    6.66    0.12 
   3   4  -2    6.61    0.12 
  -3   4   2    7.02    0.12 
  -3   4   2    6.58    0.12 
  -3  -4   2    6.62    0.13 
   3   4  -1    0.39    0.02 
  -3   4   1    0.38    0.02 
   3   4  -1    0.37    0.02 
  -3   4   1    0.39    0.02 
  -3  -4   1    0.45    0.03 
  -3   4   0    4.88    0.09 
  -3   4   0    4.97    0.09 
   3   4   0    4.93    0.10 
   3   4   0    4.99    0.09 
  -3  -4   0    4.92    0.09 
   3   4   1    5.05    0.10 
  -3   4  -1    5.30    0.10 
   3   4   1    5.22    0.09 
  -3   4  -1    5.04    0.10 
  -3  -4  -1    5.26    0.09 
  -3   4  -2    0.09    0.01 
   3   4   2    0.11    0.01 
   3   4   2    0.09    0.02 
  -3   4  -2    0.08    0.01 
  -3  -4  -2    0.13    0.01 
   3   4   3    0.38    0.03 
  -3   4  -3    0.36    0.03 
   3   4   3    0.34    0.02 
  -3   4  -3    0.35    0.03 
  -3  -4  -3    0.37    0.02 
   3   4   4    2.76    0.08 
   3   4   4    2.73    0.07 
  -3   4  -4    2.71    0.07 
  -3   4  -4    2.66    0.08 
   3   4   5    0.76    0.05 
   3   4   5    0.81    0.04 
  -3   4  -5    0.72    0.04 
   3   4   6    0.03    0.02 
   3   4   6   -0.01    0.02 
  -3   4  -6    0.00    0.02 
  -3   4  -7    0.15    0.03 
   3   4   7    0.18    0.03 
   3   4   8    0.26    0.04 
  -3   5   8    0.21    0.04 
  -3   5   7    0.06    0.02 
  -3  -5   7    0.09    0.03 
  -3   5   6    1.16    0.06 
  -3  -5   6    1.13    0.06 
  -3   5   5    0.05    0.02 
  -3  -5   5    0.05    0.02 
  -3   5   4    1.40    0.05 
   3   5  -4    1.30    0.05 
  -3  -5   4    1.34    0.06 
   3   5  -3    0.82    0.03 
  -3   5   3    0.82    0.03 
   3   5  -3    0.77    0.04 
  -3   5   3    0.73    0.04 
  -3  -5   3    0.75    0.04 
  -3   5   2    0.45    0.03 
   3   5  -2    0.44    0.03 
  -3   5   2    0.45    0.02 
   3   5  -2    0.45    0.03 
  -3  -5   2    0.48    0.03 
  -3   5   1    1.81    0.05 
   3   5  -1    1.76    0.05 
  -3   5   1    1.66    0.05 
   3   5  -1    1.65    0.05 
  -3  -5   1    1.63    0.05 
  -3   5   0    0.08    0.01 
   3   5   0    0.08    0.01 
   3   5   0    0.12    0.02 
  -3   5   0    0.08    0.01 
  -3  -5   0    0.09    0.01 
  -3   5  -1    0.18    0.02 
   3   5   1    0.20    0.02 
  -3   5  -1    0.22    0.02 
   3   5   1    0.19    0.02 
  -3  -5  -1    0.19    0.01 
   3   5   2    6.12    0.13 
  -3   5  -2    6.36    0.12 
   3   5   2    6.24    0.11 
  -3   5  -2    6.33    0.13 
  -3   5  -3    0.35    0.03 
   3   5   3    0.33    0.03 
   3   5   3    0.38    0.02 
  -3   5  -3    0.28    0.03 
  -3   5  -4    0.18    0.02 
   3   5   4    0.20    0.02 
  -3   5  -4    0.19    0.02 
   3   5   4    0.21    0.03 
   3   5   5    0.36    0.03 
  -3   5  -5    0.35    0.03 
  -3   5  -5    0.35    0.03 
   3   5   5    0.31    0.03 
   3   5   6    2.83    0.09 
  -3   5  -6    2.72    0.10 
   3   5   6    3.02    0.09 
   3   5   7    0.08    0.03 
  -3   5  -7    0.06    0.03 
   3  -5   7    0.10    0.03 
   3   5   8    0.04    0.03 
  -3   6   8    0.01    0.03 
  -3   6   7    0.15    0.03 
  -3  -6   7    0.09    0.04 
  -3   6   6    0.65    0.05 
  -3  -6   6    0.66    0.05 
  -3   6   5    1.17    0.06 
  -3  -6   5    1.14    0.06 
  -3   6   4    8.47    0.16 
  -3  -6   4    8.09    0.17 
   3   6  -3    5.30    0.12 
  -3   6   3    5.44    0.12 
  -3  -6   3    5.28    0.12 
   3   6  -2    2.58    0.07 
  -3   6   2    2.46    0.07 
   3   6  -2    2.52    0.07 
  -3  -6   2    2.53    0.07 
  -3   6   1    2.15    0.05 
   3   6  -1    2.07    0.06 
   3   6  -1    2.12    0.06 
  -3   6   1    2.18    0.06 
  -3  -6   1    2.13    0.06 
   3   6   0   14.81    0.23 
   3   6   0   14.73    0.24 
  -3   6   0   14.71    0.23 
  -3   6   0   14.53    0.23 
   3   6   1    0.07    0.01 
   3   6   1    0.06    0.02 
  -3   6  -1    0.05    0.02 
  -3   6  -1    0.08    0.01 
   3   6   2    0.00    0.01 
   3   6   2   -0.01    0.01 
  -3   6  -2   -0.01    0.01 
  -3   6  -2    0.00    0.01 
   3   6   3    1.21    0.05 
  -3   6  -3    1.05    0.05 
  -3   6  -3    1.21    0.05 
   3   6   3    1.25    0.05 
   3   6   4    0.55    0.04 
  -3   6  -4    0.54    0.04 
   3   6   4    0.53    0.03 
  -3   6  -4    0.51    0.04 
  -3   6  -5    0.05    0.02 
  -3   6  -5    0.04    0.02 
   3   6   5    0.06    0.02 
   3   6   5    0.01    0.02 
   3   6   6    0.00    0.02 
  -3   6  -6    0.00    0.02 
   3   6   7    0.07    0.03 
   3  -6   7    0.11    0.04 
  -3   7   7    0.25    0.04 
  -3  -7   7    0.24    0.05 
  -3   7   6    3.96    0.12 
  -3  -7   6    4.09    0.13 
  -3   7   5    4.05    0.11 
   3   7  -5    4.11    0.12 
  -3  -7   5    3.98    0.12 
   3   7  -4    0.23    0.03 
  -3   7   4    0.15    0.03 
  -3  -7   4    0.18    0.03 
   3   7  -3    4.29    0.11 
  -3   7   3    4.52    0.11 
  -3  -7   3    4.32    0.11 
   3   7  -2   42.71    0.61 
   3   7  -2   41.67    0.60 
  -3   7   2   41.67    0.60 
  -3  -7   2   42.22    0.63 
   3   7  -1    8.39    0.16 
   3   7  -1    8.12    0.15 
  -3   7   1    8.28    0.16 
   3   7   0    2.71    0.07 
  -3   7   0    2.77    0.08 
   3   7   0    2.77    0.08 
   3   7   1    6.49    0.14 
  -3   7  -1    6.68    0.13 
   3   7   1    6.39    0.13 
  -3   7  -1    6.54    0.13 
  -3   7  -2    0.02    0.02 
  -3   7  -2    0.04    0.02 
   3   7   2    0.03    0.02 
   3   7   2    0.02    0.02 
   3   7   3    0.04    0.02 
   3   7   3    0.01    0.01 
  -3   7  -3    0.03    0.02 
  -3   7  -3    0.05    0.02 
   3   7   4    0.90    0.05 
   3   7   4    1.01    0.05 
  -3   7  -4    0.85    0.05 
  -3   7  -4    1.01    0.05 
  -3   7  -5    0.00    0.02 
   3   7   5   -0.04    0.02 
  -3   7  -5   -0.02    0.01 
   3   7   5   -0.01    0.02 
   3   7   6    0.06    0.03 
  -3   7  -6    0.10    0.03 
  -3   7  -6    0.10    0.03 
   3  -7   6    0.12    0.03 
   3   7   7   -0.01    0.02 
  -3   8   7    0.48    0.05 
  -3   8   6    0.74    0.05 
  -3  -8   6    0.66    0.06 
  -3   8   5    0.21    0.03 
   3   8  -5    0.17    0.03 
  -3  -8   5    0.21    0.04 
  -3   8   4    8.31    0.18 
   3   8  -4    8.20    0.18 
  -3  -8   4    8.45    0.18 
  -3   8   3    0.07    0.02 
   3   8  -3    0.11    0.02 
   3   8  -2    0.09    0.02 
  -3   8   2    0.07    0.02 
   3   8  -1    9.42    0.17 
  -3   8   1    9.33    0.18 
   3   8  -1    8.99    0.17 
   3   8   0    3.01    0.08 
   3   8   0    2.99    0.09 
  -3   8   0    3.01    0.09 
   3   8   1    0.21    0.03 
   3   8   1    0.22    0.03 
  -3   8  -1    0.22    0.03 
  -3   8  -2    0.02    0.02 
   3   8   2    0.05    0.02 
   3   8   2    0.04    0.02 
  -3   8  -3    1.56    0.06 
   3   8   3    1.57    0.07 
  -3   8  -3    1.62    0.07 
   3   8   3    1.50    0.06 
  -3   8  -4    0.09    0.02 
  -3   8  -4    0.11    0.03 
   3   8   4    0.07    0.02 
   3   8   4    0.12    0.02 
  -3   8  -5    0.03    0.02 
   3   8   5   -0.02    0.02 
  -3   8  -5    0.00    0.02 
  -3   8  -6   -0.02    0.02 
   3   8   6   -0.01    0.02 
   3  -8   6   -0.04    0.03 
  -3   9   6    0.01    0.03 
   3   9  -5    0.09    0.03 
  -3   9   5    0.11    0.03 
  -3   9   4    0.48    0.04 
   3   9  -4    0.41    0.04 
  -3   9   3    0.04    0.02 
   3   9  -3    0.08    0.02 
   3   9  -2    0.56    0.04 
  -3   9   2    0.59    0.04 
   3   9  -1    0.47    0.04 
  -3   9   1    0.56    0.04 
  -3   9   0    0.26    0.03 
   3   9   0    0.19    0.03 
   3   9   0    0.29    0.03 
   3   9   1    1.91    0.07 
  -3   9  -1    1.98    0.07 
   3   9   1    1.95    0.07 
   3   9   2    0.70    0.04 
  -3   9  -2    0.81    0.05 
   3   9   2    0.65    0.04 
  -3   9  -3    3.58    0.11 
   3   9   3    3.69    0.11 
   3   9   3    3.67    0.10 
   3   9   4    0.07    0.03 
  -3   9  -4    0.05    0.02 
   3   9   4    0.06    0.02 
   3   9   5    0.66    0.05 
  -3   9  -5    0.69    0.05 
   3  -9   5    0.70    0.06 
   3   9   6    0.47    0.05 
  -3   9  -6    0.43    0.05 
  -3  10   5    0.03    0.03 
   3  10  -5    0.04    0.03 
  -3  10   4    0.03    0.02 
   3  10  -4    0.05    0.02 
   3  10  -3    0.64    0.05 
  -3  10   3    0.69    0.05 
   3  10  -2    0.56    0.04 
  -3  10   2    0.61    0.05 
  -3  10   1    0.30    0.03 
   3  10  -1    0.29    0.03 
   3  10   0    0.94    0.05 
  -3  10   0    0.90    0.05 
   3  10   1    0.06    0.02 
   3  10   1    0.00    0.02 
  -3  10  -1    0.00    0.02 
   3  10   2    0.17    0.03 
  -3  10  -2    0.11    0.03 
   3  10   2    0.13    0.03 
   3  10   3    0.05    0.02 
  -3  10  -3    0.03    0.02 
   3  10   3    0.01    0.02 
  -3  10  -4    0.33    0.04 
   3  10   4    0.29    0.04 
  -3  10  -5    0.00    0.02 
   3  10   5   -0.01    0.02 
  -3  11   4    0.01    0.02 
   3  11  -4    0.04    0.03 
  -3  11   3    0.10    0.03 
   3  11  -3    0.07    0.03 
  -3  11   2    0.35    0.04 
   3  11  -2    0.37    0.04 
  -3  11   1    0.01    0.02 
   3  11  -1   -0.02    0.02 
   3  11   0    0.24    0.03 
  -3  11   0    0.26    0.03 
   3  11   1    0.00    0.02 
  -3  11  -1    0.08    0.03 
   3  11   2    0.10    0.03 
   3  11   2    0.07    0.03 
  -3  11  -2    0.09    0.03 
   3  11   3    0.04    0.02 
  -3  11  -3   -0.02    0.02 
  -3  11  -4    0.07    0.03 
   3  12  -2    0.15    0.03 
  -3  12   2    0.15    0.03 
   3  12  -1   -0.02    0.02 
  -3  12   1   -0.01    0.02 
  -3  12   0    1.75    0.08 
   3  12   0    1.73    0.08 
  -3  12  -1    0.37    0.05 
   3  12   1    0.42    0.04 
  -4   0   8    1.04    0.07 
  -4   0   7    0.01    0.02 
  -4   0   6    2.63    0.09 
  -4   0   5    0.01    0.02 
  -4   0   4    0.46    0.03 
  -4   0   3    0.00    0.01 
  -4   0   2    0.01    0.01 
  -4   0   1    0.03    0.01 
  -4   0   1    0.03    0.01 
  -4   0   0    3.10    0.07 
   4   0   0    3.02    0.07 
  -4   0  -1    0.01    0.01 
   4   0   1    0.00    0.01 
   4   0   2    0.48    0.02 
  -4   0  -2    0.47    0.03 
  -4   0  -3    0.01    0.01 
   4   0   3    0.00    0.01 
   4   0   4    1.56    0.05 
  -4   0  -4    1.61    0.06 
   4   0   5   -0.01    0.01 
  -4   0  -5   -0.01    0.01 
  -4   0  -6    4.20    0.11 
  -4   0  -7   -0.01    0.02 
  -4   0  -8    1.05    0.07 
   4   0   8    1.05    0.07 
  -4   1   9    0.00    0.03 
  -4   1   9    0.04    0.03 
  -4   1   8    0.63    0.06 
  -4   1   8    0.77    0.06 
  -4  -1   8    0.55    0.05 
  -4   1   7    0.42    0.04 
  -4  -1   7    0.42    0.05 
  -4   1   6    0.01    0.02 
  -4  -1   6    0.02    0.02 
  -4   1   5    1.17    0.06 
  -4  -1   5    1.14    0.06 
  -4   1   4    4.22    0.10 
  -4  -1   4    4.15    0.10 
  -4   1   3    4.57    0.09 
  -4   1   3    4.58    0.10 
  -4  -1   3    4.61    0.10 
  -4   1   2   19.83    0.30 
  -4   1   2   19.40    0.28 
  -4  -1   2   18.91    0.30 
   4   1  -1   33.57    0.49 
  -4   1   1   34.66    0.50 
  -4   1   1   35.46    0.46 
  -4  -1   1   33.86    0.50 
  -4   1   0   19.09    0.29 
  -4   1   0   18.94    0.26 
   4   1   0   19.09    0.29 
  -4  -1   0   19.46    0.29 
  -4   1  -1   22.46    0.31 
   4   1   1   23.05    0.34 
  -4   1  -1   22.52    0.34 
  -4  -1  -1   22.72    0.34 
   4  -1   1   22.74    0.33 
   4   1   2    0.47    0.03 
   4   1   2    0.50    0.02 
  -4   1  -2    0.50    0.03 
  -4   1  -2    0.50    0.02 
  -4  -1  -2    0.50    0.03 
   4  -1   2    0.49    0.02 
   4   1   3    0.06    0.01 
  -4   1  -3    0.07    0.01 
   4  -1   3    0.08    0.01 
  -4  -1  -3    0.06    0.01 
   4   1   4    0.33    0.03 
  -4   1  -4    0.31    0.03 
  -4  -1  -4    0.28    0.02 
   4  -1   4    0.30    0.02 
   4   1   5    0.25    0.03 
  -4   1  -5    0.24    0.03 
  -4  -1  -5    0.22    0.03 
  -4   1  -6    0.36    0.04 
  -4  -1  -6    0.33    0.03 
  -4   1  -7    1.08    0.06 
  -4  -1  -7    1.11    0.06 
  -4   1  -8    1.67    0.08 
   4   1   8    1.58    0.08 
   4  -1   8    1.58    0.08 
  -4   2   9    0.21    0.04 
  -4   2   8    0.03    0.03 
  -4   2   8    0.04    0.03 
  -4  -2   8    0.00    0.03 
  -4   2   7   -0.02    0.02 
  -4   2   7    0.01    0.02 
  -4  -2   7   -0.03    0.02 
  -4   2   6    0.06    0.02 
  -4   2   6    0.06    0.02 
  -4  -2   6    0.03    0.02 
  -4   2   5    0.12    0.02 
  -4   2   5    0.11    0.02 
  -4  -2   5    0.16    0.03 
  -4   2   4    0.22    0.02 
  -4   2   4    0.14    0.02 
  -4  -2   4    0.18    0.03 
  -4   2   3    1.33    0.05 
  -4   2   3    1.36    0.04 
  -4  -2   3    1.24    0.05 
  -4   2   2  108.34    1.45 
  -4   2   2  109.19    1.54 
   4   2  -2  108.25    1.49 
  -4  -2   2  108.18    1.53 
   4   2  -1    2.82    0.07 
  -4   2   1    2.98    0.06 
  -4   2   1    2.84    0.07 
  -4  -2   1    2.87    0.07 
  -4   2   0   55.56    0.79 
  -4   2   0   55.43    0.73 
   4   2   0   55.23    0.77 
  -4  -2   0   54.60    0.79 
   4   2   1   13.55    0.22 
  -4   2  -1   13.79    0.22 
  -4   2  -1   13.67    0.20 
  -4  -2  -1   14.02    0.22 
   4   2   2    2.69    0.07 
  -4   2  -2    2.70    0.06 
  -4   2  -2    2.70    0.07 
   4   2   2    2.61    0.05 
  -4  -2  -2    2.61    0.06 
   4  -2   2    2.73    0.06 
   4   2   3    0.22    0.02 
   4   2   3    0.17    0.02 
  -4   2  -3    0.17    0.02 
  -4   2  -3    0.21    0.02 
  -4  -2  -3    0.19    0.02 
   4  -2   3    0.19    0.02 
   4   2   4    2.11    0.05 
  -4   2  -4    2.08    0.07 
   4   2   4    2.10    0.06 
  -4  -2  -4    2.12    0.06 
   4   2   5    0.01    0.01 
  -4   2  -5    0.01    0.02 
   4   2   5    0.07    0.02 
  -4  -2  -5   -0.01    0.01 
  -4   2  -6    0.05    0.02 
   4   2   6    0.03    0.02 
  -4  -2  -6    0.03    0.02 
  -4   2  -7    0.04    0.02 
  -4   2  -8    0.16    0.04 
   4  -2   8    0.22    0.04 
  -4   3   8    0.29    0.04 
  -4  -3   8    0.38    0.05 
  -4   3   7    0.53    0.04 
  -4  -3   7    0.52    0.05 
  -4   3   6    0.57    0.04 
  -4   3   6    0.55    0.04 
  -4  -3   6    0.52    0.05 
  -4   3   5    1.18    0.05 
  -4   3   5    1.13    0.05 
  -4  -3   5    1.29    0.06 
  -4   3   4    1.16    0.05 
  -4   3   4    1.20    0.05 
  -4  -3   4    1.22    0.06 
  -4   3   3    2.04    0.06 
  -4   3   3    2.04    0.06 
  -4  -3   3    2.04    0.07 
  -4   3   2    0.19    0.02 
  -4   3   2    0.22    0.02 
   4   3  -2    0.22    0.02 
  -4  -3   2    0.21    0.02 
  -4   3   1    3.63    0.08 
   4   3  -1    3.65    0.07 
  -4   3   1    3.58    0.07 
   4   3  -1    3.59    0.08 
  -4  -3   1    3.50    0.08 
   4   3   0   12.27    0.20 
   4   3   0   12.88    0.18 
  -4   3   0   12.48    0.19 
  -4   3   0   12.45    0.20 
  -4  -3   0   12.40    0.20 
   4   3   1   10.81    0.15 
  -4   3  -1   10.56    0.18 
  -4   3  -1   10.58    0.16 
   4   3   1   10.44    0.18 
  -4  -3  -1   10.92    0.17 
  -4   3  -2    3.50    0.07 
   4   3   2    3.43    0.06 
  -4   3  -2    3.38    0.08 
   4   3   2    3.33    0.08 
  -4  -3  -2    3.39    0.07 
  -4   3  -3    0.00    0.01 
   4   3   3    0.00    0.01 
   4   3   3    0.05    0.01 
  -4   3  -3    0.02    0.01 
  -4  -3  -3    0.01    0.01 
   4   3   4    0.28    0.03 
   4   3   4    0.28    0.02 
  -4   3  -4    0.26    0.03 
  -4   3  -4    0.27    0.02 
  -4  -3  -4    0.24    0.02 
   4   3   5    0.06    0.02 
  -4   3  -5    0.03    0.02 
  -4  -3  -5    0.06    0.02 
   4   3   6    0.13    0.02 
  -4   3  -6    0.09    0.02 
   4   3   7    0.54    0.05 
  -4   3  -7    0.46    0.04 
  -4   3  -8   -0.01    0.02 
   4  -3   8    0.06    0.03 
  -4   4   8    0.11    0.03 
  -4  -4   8    0.07    0.04 
  -4   4   7    0.08    0.03 
  -4  -4   7    0.08    0.03 
  -4   4   6    0.17    0.03 
  -4  -4   6    0.24    0.04 
  -4   4   5    1.61    0.06 
  -4   4   5    1.55    0.06 
  -4  -4   5    1.65    0.07 
  -4   4   4    0.42    0.03 
  -4   4   4    0.35    0.03 
  -4  -4   4    0.39    0.04 
  -4   4   3    0.19    0.02 
  -4   4   3    0.26    0.02 
  -4  -4   3    0.19    0.03 
   4   4  -2    3.09    0.07 
  -4   4   2    3.02    0.07 
   4   4  -2    3.09    0.07 
  -4   4   2    2.91    0.07 
  -4  -4   2    3.08    0.08 
   4   4  -1    1.26    0.04 
  -4   4   1    1.30    0.04 
   4   4  -1    1.39    0.04 
  -4   4   1    1.35    0.04 
  -4  -4   1    1.28    0.04 
   4   4   0    6.10    0.12 
   4   4   0    6.68    0.11 
  -4   4   0    6.42    0.11 
  -4   4   0    6.64    0.12 
  -4  -4   0    6.50    0.12 
  -4   4  -1    0.11    0.02 
   4   4   1    0.09    0.02 
  -4   4  -1    0.09    0.01 
   4   4   1    0.14    0.01 
  -4  -4  -1    0.10    0.01 
  -4   4  -2    0.36    0.03 
  -4   4  -2    0.34    0.02 
   4   4   2    0.32    0.03 
   4   4   2    0.36    0.02 
  -4  -4  -2    0.34    0.02 
   4   4   3    1.06    0.04 
   4   4   3    0.95    0.04 
  -4   4  -3    1.00    0.04 
  -4   4  -3    0.97    0.05 
  -4  -4  -3    1.00    0.04 
  -4   4  -4    0.49    0.04 
   4   4   4    0.43    0.03 
  -4   4  -4    0.51    0.03 
   4   4   4    0.51    0.04 
   4   4   5    0.02    0.02 
  -4   4  -5    0.03    0.02 
   4   4   6    0.30    0.03 
  -4   4  -6    0.30    0.03 
   4   4   7    0.00    0.02 
  -4   4  -7    0.02    0.02 
  -4   5   8    0.39    0.04 
  -4   5   7    0.04    0.02 
  -4  -5   7   -0.02    0.03 
  -4   5   6    0.98    0.05 
  -4  -5   6    1.01    0.06 
  -4   5   5    0.11    0.02 
  -4  -5   5    0.11    0.03 
  -4   5   4    2.79    0.08 
  -4  -5   4    2.70    0.09 
  -4   5   3    0.00    0.01 
  -4   5   3    0.01    0.01 
   4   5  -3    0.00    0.01 
   4   5  -3   -0.01    0.01 
  -4  -5   3   -0.01    0.02 
  -4   5   2    4.85    0.10 
   4   5  -2    4.80    0.10 
   4   5  -2    4.89    0.10 
  -4   5   2    4.81    0.10 
  -4  -5   2    4.95    0.11 
  -4   5   1    0.99    0.04 
   4   5  -1    0.94    0.04 
   4   5  -1    0.91    0.04 
  -4   5   1    0.86    0.04 
  -4  -5   1    0.96    0.04 
  -4   5   0   -0.01    0.01 
   4   5   0    0.01    0.01 
  -4   5   0   -0.01    0.01 
   4   5   0    0.00    0.01 
  -4  -5   0    0.00    0.01 
  -4   5  -1    1.49    0.05 
  -4   5  -1    1.60    0.05 
   4   5   1    1.58    0.06 
   4   5   1    1.57    0.04 
  -4  -5  -1    1.55    0.04 
  -4   5  -2    0.49    0.03 
   4   5   2    0.49    0.03 
   4   5   2    0.49    0.03 
  -4   5  -2    0.47    0.03 
   4   5   3    0.09    0.02 
  -4   5  -3    0.06    0.02 
  -4   5  -3    0.07    0.02 
   4   5   3    0.08    0.01 
   4   5   4    1.49    0.06 
  -4   5  -4    1.55    0.06 
  -4   5  -4    1.45    0.05 
   4   5   5    0.04    0.02 
  -4   5  -5    0.00    0.02 
  -4   5  -5    0.03    0.02 
   4   5   6    0.10    0.03 
  -4   5  -6    0.05    0.02 
  -4   5  -7    0.00    0.02 
   4   5   7    0.02    0.02 
  -4   6   8    0.02    0.03 
  -4   6   7    0.09    0.03 
  -4  -6   7    0.10    0.04 
  -4   6   6    0.03    0.02 
  -4  -6   6    0.10    0.03 
  -4   6   5    0.78    0.05 
  -4  -6   5    0.76    0.05 
  -4   6   4    0.45    0.04 
   4   6  -4    0.43    0.04 
  -4  -6   4    0.46    0.04 
  -4   6   3    6.45    0.13 
   4   6  -3    6.40    0.13 
   4   6  -3    6.34    0.13 
  -4  -6   3    6.59    0.14 
  -4   6   2    4.84    0.11 
   4   6  -2    4.82    0.10 
   4   6  -2    4.98    0.11 
  -4  -6   2    4.88    0.11 
  -4   6   1   11.48    0.20 
  -4   6   1   11.66    0.19 
   4   6  -1   11.66    0.19 
   4   6  -1   11.91    0.20 
  -4  -6   1   11.80    0.20 
   4   6   0    0.02    0.01 
   4   6   0    0.01    0.01 
  -4   6   0    0.01    0.01 
  -4   6   0    0.02    0.01 
  -4   6  -1    2.81    0.07 
   4   6   1    2.90    0.07 
   4   6   1    2.74    0.08 
  -4   6  -1    2.76    0.07 
  -4   6  -2    7.47    0.15 
  -4   6  -2    7.24    0.14 
   4   6   2    7.37    0.16 
   4   6   2    7.71    0.13 
   4   6   3    0.44    0.03 
  -4   6  -3    0.40    0.03 
   4   6   3    0.43    0.04 
  -4   6  -3    0.39    0.03 
  -4   6  -4    0.06    0.02 
  -4   6  -4    0.06    0.02 
   4   6   4    0.06    0.02 
  -4   6  -5    0.30    0.03 
  -4   6  -5    0.28    0.03 
   4   6   5    0.31    0.03 
   4   6   6    0.10    0.03 
  -4   6  -6    0.11    0.03 
  -4   6  -7    0.00    0.02 
   4   6   7    0.02    0.02 
  -4   7   7    0.02    0.02 
  -4  -7   7    0.06    0.04 
  -4   7   6    0.34    0.04 
  -4  -7   6    0.35    0.05 
  -4   7   5    0.19    0.03 
  -4  -7   5    0.15    0.03 
   4   7  -4   10.05    0.20 
  -4   7   4   10.53    0.20 
  -4  -7   4    9.96    0.21 
  -4   7   3    5.35    0.12 
   4   7  -3    5.30    0.12 
  -4  -7   3    5.47    0.13 
   4   7  -2    6.22    0.13 
   4   7  -2    6.27    0.13 
  -4   7   2    6.29    0.13 
  -4   7   1    3.25    0.09 
   4   7  -1    3.55    0.09 
   4   7  -1    3.28    0.08 
   4   7   0   31.12    0.45 
   4   7   0   31.22    0.47 
  -4   7   0   30.41    0.46 
  -4   7  -1    1.03    0.05 
   4   7   1    1.11    0.05 
   4   7   1    1.15    0.05 
  -4   7  -1    1.07    0.05 
   4   7   2    7.54    0.16 
  -4   7  -2    7.62    0.15 
   4   7   2    7.68    0.14 
  -4   7  -2    7.77    0.16 
  -4   7  -3    1.68    0.07 
   4   7   3    1.88    0.07 
  -4   7  -3    1.81    0.07 
  -4   7  -4    0.00    0.02 
  -4   7  -4   -0.02    0.01 
   4   7   4    0.00    0.02 
  -4   7  -5    0.02    0.02 
  -4   7  -5   -0.02    0.02 
   4   7   5    0.03    0.02 
   4   7   6    0.27    0.04 
  -4   7  -6    0.27    0.04 
  -4   7  -6    0.30    0.04 
   4   7   7   -0.01    0.02 
  -4   8   6    0.03    0.03 
  -4  -8   6    0.06    0.03 
  -4   8   5    0.65    0.05 
   4   8  -5    0.65    0.05 
  -4  -8   5    0.73    0.06 
   4   8  -4    0.30    0.03 
  -4   8   4    0.32    0.04 
   4   8  -3    1.41    0.06 
  -4   8   3    1.25    0.06 
   4   8  -2   15.54    0.27 
  -4   8   2   16.10    0.27 
   4   8  -1    0.17    0.03 
  -4   8   1    0.17    0.03 
   4   8  -1    0.17    0.03 
   4   8   0    8.64    0.16 
   4   8   0    8.79    0.18 
  -4   8   0    8.38    0.17 
  -4   8  -1    7.16    0.15 
   4   8   1    7.14    0.16 
   4   8   1    7.32    0.14 
  -4   8  -2    0.05    0.02 
   4   8   2    0.06    0.02 
   4   8   2    0.07    0.02 
  -4   8  -2    0.03    0.02 
  -4   8  -3    0.44    0.04 
   4   8   3    0.51    0.04 
  -4   8  -3    0.47    0.04 
   4   8   4    0.03    0.02 
  -4   8  -4    0.04    0.02 
  -4   8  -4    0.05    0.02 
   4   8   5    0.92    0.06 
  -4   8  -5    0.98    0.06 
  -4   8  -5    0.93    0.06 
  -4   8  -6    0.01    0.02 
  -4   8  -6    0.01    0.03 
   4   8   6    0.01    0.02 
  -4   9   6    0.00    0.03 
   4   9  -5    0.36    0.04 
  -4   9   5    0.35    0.04 
   4   9  -4    0.01    0.02 
  -4   9   4    0.00    0.02 
  -4   9   3    0.00    0.02 
   4   9  -3    0.00    0.02 
  -4   9   2    0.00    0.02 
   4   9  -2   -0.01    0.02 
  -4   9   1    0.57    0.04 
   4   9  -1    0.50    0.04 
  -4   9   0    0.07    0.02 
   4   9   0    0.06    0.02 
   4   9   0    0.08    0.02 
  -4   9  -1    1.11    0.06 
   4   9   1    1.13    0.05 
   4   9   1    1.07    0.06 
   4   9   2    0.25    0.03 
  -4   9  -2    0.20    0.03 
   4   9   3    0.29    0.04 
  -4   9  -3    0.26    0.03 
   4   9   4    0.32    0.04 
  -4   9  -4    0.31    0.04 
  -4   9  -5    0.28    0.04 
  -4   9  -5    0.39    0.04 
   4   9   5    0.38    0.04 
  -4  10   5    0.26    0.04 
   4  10  -5    0.21    0.04 
   4  10  -4   -0.03    0.02 
  -4  10   4   -0.02    0.02 
   4  10  -3    0.07    0.03 
  -4  10   3    0.10    0.03 
  -4  10   2    0.01    0.02 
   4  10  -2    0.01    0.02 
   4  10  -1    1.28    0.06 
  -4  10   1    1.40    0.07 
   4  10   0    0.06    0.02 
  -4  10   0    0.09    0.03 
   4  10   0    0.11    0.02 
  -4  10  -1    0.50    0.04 
   4  10   1    0.46    0.04 
   4  10   1    0.51    0.04 
  -4  10  -2    0.09    0.03 
   4  10   2    0.13    0.03 
  -4  10  -3    0.03    0.02 
   4  10   3    0.03    0.02 
   4  10   4    0.01    0.02 
  -4  10  -4    0.04    0.02 
  -4  11   3    0.59    0.05 
   4  11  -3    0.46    0.05 
  -4  11   2    0.41    0.04 
   4  11  -2    0.36    0.04 
   4  11  -1    0.04    0.02 
  -4  11   1    0.07    0.03 
   4  11   0    0.42    0.04 
  -4  11   0    0.31    0.04 
   4  11   1    0.05    0.03 
  -4  11  -1    0.04    0.03 
   4  11   2    0.72    0.05 
  -4  11  -2    0.66    0.05 
   4  11   3   -0.01    0.02 
  -4  11  -3   -0.02    0.02 
  -4  12   1    0.05    0.03 
   4  12  -1    0.03    0.03 
  -4  12   0    0.00    0.03 
  -5   0   9   -0.03    0.03 
  -5   0   8    4.38    0.14 
  -5   0   7    0.02    0.02 
  -5   0   6    9.76    0.21 
  -5   0   5   -0.01    0.02 
  -5   0   4    2.64    0.08 
  -5   0   3    0.00    0.01 
  -5   0   2    0.00    0.01 
  -5   0   1    0.00    0.01 
  -5   0   1    0.03    0.01 
   5   0   0    9.11    0.16 
  -5   0   0    9.42    0.16 
  -5   0  -1    0.00    0.01 
   5   0   1    0.00    0.01 
  -5   0  -2    0.21    0.02 
   5   0   2    0.22    0.02 
   5   0   3    0.01    0.01 
  -5   0  -3   -0.01    0.01 
  -5   0  -4    0.01    0.01 
   5   0   4    0.00    0.01 
  -5   0  -5    0.01    0.02 
  -5   0  -6    0.37    0.04 
  -5   0  -7   -0.03    0.02 
  -5   0  -8    0.32    0.04 
  -5   1   8    3.95    0.13 
  -5   1   8    3.96    0.12 
  -5  -1   8    3.76    0.13 
  -5   1   7    0.40    0.04 
  -5   1   7    0.47    0.04 
  -5  -1   7    0.42    0.04 
  -5   1   6    0.23    0.03 
  -5   1   6    0.28    0.03 
  -5  -1   6    0.26    0.04 
  -5   1   5    0.80    0.04 
  -5   1   5    0.83    0.05 
  -5  -1   5    0.88    0.05 
  -5   1   4    0.23    0.03 
  -5   1   4    0.20    0.02 
  -5  -1   4    0.23    0.03 
  -5   1   3    0.87    0.04 
  -5   1   3    0.87    0.04 
  -5  -1   3    0.86    0.04 
  -5   1   2    7.61    0.13 
  -5   1   2    7.87    0.15 
  -5  -1   2    7.77    0.15 
  -5   1   1    0.94    0.03 
   5   1  -1    0.83    0.04 
  -5   1   1    0.92    0.04 
  -5  -1   1    0.93    0.04 
   5   1   0   39.73    0.57 
  -5   1   0   39.73    0.53 
  -5   1   0   40.68    0.59 
  -5  -1   0   39.02    0.58 
   5   1   1    5.82    0.11 
  -5   1  -1    5.75    0.09 
  -5   1  -1    5.65    0.11 
  -5  -1  -1    5.80    0.11 
   5  -1   1    5.85    0.11 
   5   1   2    1.14    0.04 
  -5   1  -2    1.12    0.04 
  -5   1  -2    1.17    0.03 
  -5  -1  -2    1.12    0.04 
   5  -1   2    1.12    0.04 
   5   1   3    1.98    0.06 
  -5   1  -3    2.02    0.06 
  -5  -1  -3    2.00    0.06 
   5  -1   3    2.09    0.05 
   5   1   4    0.28    0.03 
  -5   1  -4    0.26    0.03 
  -5  -1  -4    0.30    0.03 
  -5   1  -5    0.09    0.02 
   5   1   5    0.10    0.02 
  -5  -1  -5    0.05    0.02 
  -5   1  -6    0.00    0.02 
  -5  -1  -6    0.02    0.02 
  -5   1  -7    0.01    0.02 
  -5  -1  -7    0.03    0.02 
  -5   1  -8    0.25    0.04 
  -5   2   8    0.26    0.04 
  -5   2   8    0.19    0.04 
  -5  -2   8    0.34    0.05 
  -5   2   7    0.05    0.02 
  -5   2   7    0.08    0.03 
  -5  -2   7    0.06    0.03 
  -5   2   6    0.80    0.05 
  -5   2   6    0.76    0.05 
  -5  -2   6    0.68    0.05 
  -5   2   5    0.41    0.04 
  -5   2   5    0.42    0.03 
  -5  -2   5    0.46    0.04 
  -5   2   4    3.69    0.09 
  -5   2   4    3.66    0.09 
  -5  -2   4    3.64    0.10 
  -5   2   3    0.05    0.01 
  -5   2   3    0.04    0.01 
  -5  -2   3    0.07    0.02 
   5   2  -2    0.04    0.01 
  -5   2   2    0.01    0.01 
  -5   2   2    0.01    0.01 
  -5  -2   2    0.02    0.01 
  -5   2   1    6.01    0.12 
   5   2  -1    5.85    0.12 
  -5   2   1    6.07    0.10 
  -5  -2   1    5.73    0.12 
   5   2   0   61.14    0.88 
  -5   2   0   63.60    0.90 
  -5   2   0   64.50    0.83 
  -5  -2   0   61.75    0.90 
  -5   2  -1    2.27    0.06 
  -5   2  -1    2.17    0.05 
   5   2   1    2.12    0.06 
  -5  -2  -1    2.20    0.06 
   5   2   2   40.15    0.59 
  -5   2  -2   40.53    0.60 
  -5   2  -2   39.94    0.54 
  -5  -2  -2   40.22    0.59 
   5  -2   2   40.64    0.57 
   5   2   3    2.28    0.07 
  -5   2  -3    2.34    0.07 
  -5   2  -3    2.27    0.05 
  -5  -2  -3    2.30    0.06 
   5  -2   3    2.31    0.06 
   5   2   4    0.02    0.01 
  -5   2  -4    0.01    0.01 
  -5  -2  -4    0.00    0.01 
   5   2   5    0.09    0.02 
  -5   2  -5    0.07    0.02 
  -5  -2  -5    0.07    0.02 
   5   2   6    0.15    0.03 
  -5   2  -6    0.19    0.03 
  -5  -2  -6    0.17    0.03 
  -5   2  -7    0.12    0.03 
  -5   3   8   -0.03    0.02 
  -5  -3   8    0.00    0.03 
  -5   3   7    0.60    0.05 
  -5  -3   7    0.69    0.06 
  -5   3   6    0.46    0.04 
  -5   3   6    0.39    0.04 
  -5  -3   6    0.47    0.04 
  -5   3   5    1.76    0.06 
  -5   3   5    1.68    0.06 
  -5  -3   5    1.67    0.07 
  -5   3   4    2.04    0.06 
  -5   3   4    1.86    0.06 
  -5  -3   4    2.04    0.07 
  -5   3   3    2.41    0.06 
  -5   3   3    2.38    0.07 
  -5  -3   3    2.35    0.07 
   5   3  -2    0.64    0.03 
  -5   3   2    0.50    0.03 
  -5   3   2    0.52    0.03 
  -5  -3   2    0.50    0.03 
   5   3  -1    4.37    0.10 
   5   3  -1    4.52    0.08 
  -5   3   1    4.35    0.09 
  -5   3   1    4.64    0.10 
  -5  -3   1    4.44    0.10 
   5   3   0    8.78    0.16 
  -5   3   0    9.03    0.16 
   5   3   0    8.91    0.13 
  -5   3   0    8.76    0.14 
  -5  -3   0    8.74    0.15 
  -5   3  -1    0.76    0.04 
  -5   3  -1    0.84    0.03 
   5   3   1    0.84    0.04 
  -5  -3  -1    0.84    0.03 
   5   3   2    0.15    0.02 
  -5   3  -2    0.14    0.01 
  -5   3  -2    0.12    0.02 
  -5  -3  -2    0.15    0.02 
  -5   3  -3    2.34    0.07 
   5   3   3    2.30    0.07 
  -5   3  -3    2.39    0.06 
  -5  -3  -3    2.42    0.06 
  -5   3  -4    1.44    0.06 
   5   3   4    1.49    0.06 
  -5  -3  -4    1.50    0.05 
   5   3   5    0.01    0.02 
  -5   3  -5   -0.01    0.02 
   5   3   6    0.02    0.02 
  -5   3  -6    0.04    0.02 
  -5   3  -7    0.03    0.02 
  -5   4   8    0.58    0.05 
  -5   4   7    0.00    0.02 
  -5  -4   7   -0.03    0.02 
  -5   4   6    0.58    0.04 
  -5  -4   6    0.52    0.05 
  -5   4   5    0.60    0.04 
  -5   4   5    0.63    0.04 
  -5  -4   5    0.64    0.05 
  -5   4   4    0.37    0.03 
  -5   4   4    0.34    0.03 
  -5  -4   4    0.30    0.03 
  -5   4   3    5.10    0.11 
  -5   4   3    5.13    0.11 
  -5  -4   3    5.11    0.12 
   5   4  -2    0.00    0.01 
  -5   4   2    0.00    0.01 
  -5   4   2   -0.01    0.01 
   5   4  -2    0.01    0.01 
  -5  -4   2   -0.01    0.01 
   5   4  -1    0.94    0.03 
  -5   4   1    0.85    0.03 
  -5   4   1    0.80    0.04 
   5   4  -1    0.83    0.04 
  -5  -4   1    0.85    0.04 
  -5   4   0    1.29    0.05 
   5   4   0    1.30    0.05 
  -5   4   0    1.29    0.04 
   5   4   0    1.34    0.04 
  -5  -4   0    1.25    0.04 
  -5   4  -1    0.38    0.03 
   5   4   1    0.33    0.03 
  -5   4  -1    0.38    0.02 
  -5  -4  -1    0.36    0.02 
   5   4   2    2.46    0.07 
  -5   4  -2    2.36    0.07 
  -5   4  -2    2.40    0.06 
  -5  -4  -2    2.43    0.06 
  -5   4  -3    0.17    0.02 
  -5   4  -3    0.18    0.02 
   5   4   3    0.16    0.02 
  -5  -4  -3    0.14    0.02 
  -5   4  -4    0.18    0.03 
  -5   4  -4    0.15    0.02 
   5   4   4    0.16    0.02 
   5   4   5    0.04    0.02 
  -5   4  -5    0.06    0.02 
  -5   4  -6    0.19    0.03 
   5   4   6    0.25    0.03 
   5   4   7    0.00    0.02 
  -5   4  -7    0.01    0.02 
  -5   5   8    0.82    0.06 
  -5   5   7    0.07    0.03 
  -5  -5   7    0.09    0.04 
  -5   5   6    0.26    0.03 
  -5  -5   6    0.24    0.04 
  -5   5   5    0.04    0.02 
  -5  -5   5    0.02    0.03 
  -5   5   4    2.23    0.07 
  -5  -5   4    2.22    0.08 
  -5   5   3    1.69    0.05 
  -5   5   3    1.72    0.06 
   5   5  -3    1.75    0.06 
   5   5  -3    1.75    0.06 
  -5  -5   3    1.68    0.07 
  -5   5   2    2.52    0.07 
   5   5  -2    2.58    0.07 
  -5   5   2    2.61    0.07 
   5   5  -2    2.57    0.07 
  -5  -5   2    2.57    0.07 
   5   5  -1    0.29    0.02 
  -5   5   1    0.37    0.03 
  -5   5   1    0.32    0.03 
   5   5  -1    0.34    0.03 
  -5  -5   1    0.28    0.02 
   5   5   0    4.03    0.10 
  -5   5   0    4.03    0.09 
   5   5   0    4.04    0.08 
  -5   5   0    3.98    0.09 
  -5  -5   0    3.87    0.08 
  -5   5  -1    0.03    0.01 
   5   5   1    0.01    0.01 
  -5   5  -1    0.08    0.02 
  -5  -5  -1    0.02    0.01 
   5   5   2    0.03    0.02 
  -5   5  -2    0.02    0.01 
  -5   5  -2    0.03    0.01 
  -5   5  -3    0.02    0.01 
   5   5   3    0.00    0.02 
  -5   5  -3    0.03    0.01 
  -5   5  -4    0.38    0.03 
  -5   5  -4    0.36    0.03 
   5   5   4    0.39    0.04 
  -5   5  -5    0.00    0.01 
   5   5   5    0.00    0.02 
  -5   5  -5    0.00    0.02 
  -5   5  -6    0.16    0.03 
   5   5   6    0.18    0.03 
  -5   5  -7   -0.01    0.02 
   5   5   7    0.00    0.02 
  -5   6   7    0.41    0.04 
  -5  -6   7    0.31    0.05 
  -5   6   6    0.31    0.04 
  -5  -6   6    0.26    0.04 
  -5   6   5    0.49    0.04 
  -5  -6   5    0.40    0.04 
  -5   6   4    0.61    0.04 
  -5  -6   4    0.48    0.04 
   5   6  -3    0.89    0.04 
  -5   6   3    0.90    0.05 
   5   6  -3    0.81    0.04 
  -5  -6   3    0.75    0.05 
   5   6  -2    8.59    0.17 
  -5   6   2    8.43    0.16 
   5   6  -2    8.55    0.16 
  -5  -6   2    8.83    0.17 
  -5   6   1   11.57    0.20 
   5   6  -1   11.47    0.21 
   5   6  -1   11.49    0.19 
  -5   6   1   11.07    0.20 
  -5  -6   1   11.34    0.20 
  -5   6   0    0.00    0.01 
   5   6   0    0.04    0.02 
   5   6   0   -0.02    0.01 
  -5   6   0   -0.01    0.01 
   5   6   1   10.01    0.20 
  -5   6  -1   10.88    0.19 
  -5   6  -1   10.58    0.19 
   5   6   2    1.17    0.06 
  -5   6  -2    1.21    0.05 
  -5   6  -2    1.08    0.05 
   5   6   3    1.24    0.06 
  -5   6  -3    1.25    0.05 
  -5   6  -3    1.22    0.06 
  -5   6  -4    0.84    0.05 
   5   6   4    1.01    0.06 
  -5   6  -4    0.94    0.05 
   5   6   5    0.22    0.03 
  -5   6  -5    0.24    0.03 
  -5   6  -5    0.18    0.03 
   5   6   6    0.00    0.02 
  -5   6  -6    0.01    0.02 
   5   6   7    0.04    0.03 
  -5   7   7    0.19    0.04 
  -5   7   6   -0.01    0.02 
  -5  -7   6    0.02    0.03 
  -5   7   5    0.32    0.04 
  -5  -7   5    0.33    0.04 
   5   7  -4    1.52    0.07 
  -5   7   4    1.47    0.06 
  -5  -7   4    1.49    0.07 
   5   7  -3    0.01    0.02 
  -5   7   3    0.00    0.02 
  -5  -7   3   -0.03    0.02 
   5   7  -2    9.34    0.18 
   5   7  -2    9.33    0.17 
  -5   7   2    9.28    0.18 
   5   7  -1    1.14    0.05 
   5   7  -1    1.16    0.05 
  -5   7   1    1.13    0.05 
  -5   7   0   21.65    0.35 
   5   7   0   21.86    0.36 
   5   7   0   22.42    0.33 
  -5   7   0   22.18    0.34 
  -5   7  -1    0.19    0.03 
   5   7   1    0.24    0.03 
  -5   7  -1    0.24    0.03 
  -5   7  -2    5.61    0.13 
   5   7   2    5.65    0.14 
  -5   7  -2    5.49    0.12 
   5   7   3    0.13    0.03 
  -5   7  -3    0.15    0.03 
  -5   7  -3    0.14    0.03 
   5   7   4    4.43    0.13 
  -5   7  -4    4.31    0.12 
  -5   7  -4    4.48    0.11 
  -5   7  -5    0.05    0.02 
   5   7   5    0.11    0.03 
  -5   7  -5    0.05    0.03 
   5   7   6    0.02    0.02 
  -5   7  -6    0.01    0.02 
  -5   8   6    0.21    0.04 
  -5  -8   6    0.16    0.04 
  -5   8   5    1.65    0.08 
  -5  -8   5    1.75    0.08 
  -5   8   4    1.02    0.06 
   5   8  -4    1.07    0.06 
   5   8  -3    0.21    0.03 
  -5   8   3    0.30    0.03 
  -5   8   2    0.03    0.02 
   5   8  -2    0.03    0.02 
   5   8  -1    2.25    0.08 
  -5   8   1    2.21    0.08 
   5   8  -1    2.15    0.07 
  -5   8   0    8.43    0.17 
   5   8   0    8.67    0.18 
   5   8   1    0.02    0.02 
  -5   8  -1    0.05    0.02 
  -5   8  -2   11.35    0.22 
   5   8   2   11.29    0.23 
  -5   8  -2   11.22    0.21 
   5   8   3    2.43    0.09 
  -5   8  -3    2.27    0.08 
  -5   8  -3    2.16    0.08 
  -5   8  -4    0.34    0.04 
   5   8   4    0.35    0.04 
  -5   8  -4    0.40    0.04 
  -5   8  -5    0.51    0.05 
   5   8   5    0.45    0.05 
  -5   8  -5    0.51    0.05 
  -5   8  -6    0.00    0.03 
   5   8   6    0.06    0.03 
  -5   9   5    0.14    0.03 
   5   9  -4    0.37    0.04 
  -5   9   4    0.28    0.04 
   5   9  -3    0.10    0.03 
  -5   9   3    0.12    0.03 
  -5   9   2    0.00    0.02 
   5   9  -2    0.01    0.02 
   5   9  -1    0.07    0.02 
   5   9  -1    0.06    0.02 
  -5   9   1    0.08    0.02 
  -5   9   0    0.32    0.03 
   5   9   0    0.37    0.04 
  -5   9  -1    0.54    0.04 
   5   9   1    0.60    0.05 
   5   9   2    0.09    0.03 
  -5   9  -2    0.06    0.02 
  -5   9  -3    0.95    0.06 
   5   9   3    1.12    0.06 
   5   9   4    0.02    0.02 
  -5   9  -4    0.06    0.03 
  -5   9  -5    0.03    0.03 
  -5   9  -5    0.02    0.02 
   5   9   5    0.03    0.03 
   5  10  -4    0.01    0.03 
  -5  10   4   -0.01    0.02 
  -5  10   3    0.60    0.05 
   5  10  -3    0.59    0.05 
   5  10  -2    0.01    0.02 
  -5  10   2    0.00    0.02 
  -5  10   1    0.02    0.02 
  -5  10   0    0.00    0.02 
   5  10   0    0.00    0.02 
   5  10   1    0.55    0.05 
  -5  10  -1    0.55    0.05 
   5  10   2    0.00    0.02 
  -5  10  -2    0.01    0.02 
  -5  10  -3    0.19    0.03 
   5  10   3    0.16    0.03 
  -5  10  -4    0.03    0.02 
   5  10   4    0.01    0.02 
   5  11  -3    0.28    0.04 
  -5  11   3    0.26    0.04 
  -5  11   2    0.77    0.06 
  -5  11   1    0.49    0.05 
  -5  11   0    0.71    0.06 
  -5  11  -1    0.00    0.02 
   5  11   1    0.01    0.02 
   5  11   2    0.16    0.04 
  -5  11  -2    0.12    0.03 
  -6   0   8    3.37    0.12 
  -6   0   7    0.01    0.02 
  -6   0   6    1.11    0.06 
  -6   0   5    0.00    0.02 
  -6   0   4   30.19    0.48 
  -6   0   3    0.01    0.01 
  -6   0   2    0.41    0.02 
  -6   0   2    0.40    0.03 
  -6   0   1   -0.01    0.01 
  -6   0   1    0.05    0.01 
   6   0   0    0.73    0.04 
  -6   0   0    0.80    0.04 
   6   0   1    0.00    0.01 
  -6   0  -1    0.02    0.01 
   6   0   2    8.76    0.16 
  -6   0  -2    9.15    0.17 
  -6   0  -3    0.02    0.01 
   6   0   3   -0.01    0.01 
  -6   0  -4   -0.04    0.01 
   6   0   4    0.00    0.01 
  -6   0  -5    0.00    0.01 
  -6   0  -6   -0.01    0.02 
  -6   0  -7    0.01    0.02 
  -6   0  -8    0.03    0.03 
  -6   1   8    1.45    0.08 
  -6   1   8    1.32    0.07 
  -6  -1   8    1.31    0.08 
  -6   1   7    0.34    0.04 
  -6   1   7    0.30    0.04 
  -6  -1   7    0.39    0.04 
  -6   1   6   18.22    0.31 
  -6   1   6   18.86    0.33 
  -6  -1   6   18.46    0.34 
  -6   1   5    2.12    0.08 
  -6   1   5    2.07    0.07 
  -6  -1   5    2.23    0.08 
  -6   1   4    1.30    0.05 
  -6   1   4    1.29    0.06 
  -6  -1   4    1.32    0.06 
  -6   1   3    0.63    0.04 
  -6   1   3    0.55    0.03 
  -6  -1   3    0.63    0.04 
  -6   1   2    1.88    0.06 
  -6   1   2    1.91    0.05 
  -6  -1   2    1.73    0.06 
  -6   1   1    0.05    0.01 
  -6   1   1    0.05    0.01 
   6   1  -1    0.06    0.01 
  -6  -1   1    0.05    0.01 
  -6   1   0    2.72    0.07 
   6   1   0    2.81    0.07 
  -6   1   0    2.83    0.05 
  -6  -1   0    2.84    0.07 
   6   1   1    1.98    0.06 
  -6   1  -1    2.07    0.06 
  -6  -1  -1    2.05    0.06 
   6  -1   1    2.00    0.06 
  -6   1  -2   15.05    0.25 
   6   1   2   14.43    0.24 
  -6  -1  -2   14.25    0.25 
   6  -1   2   14.49    0.24 
   6   1   3    0.00    0.01 
  -6   1  -3    0.01    0.01 
   6  -1   3    0.01    0.01 
  -6  -1  -3    0.01    0.01 
  -6   1  -4    0.16    0.02 
   6   1   4    0.19    0.02 
  -6  -1  -4    0.19    0.02 
   6   1   5    0.10    0.02 
  -6   1  -5    0.06    0.02 
  -6  -1  -5    0.06    0.02 
  -6   1  -6    0.10    0.03 
  -6  -1  -6    0.07    0.02 
  -6   1  -7    0.05    0.03 
  -6  -1  -7    0.04    0.02 
  -6   2   8    0.42    0.04 
  -6   2   8    0.33    0.04 
  -6  -2   8    0.42    0.05 
  -6   2   7    0.05    0.03 
  -6   2   7    0.01    0.02 
  -6  -2   7    0.03    0.03 
  -6   2   6    0.10    0.03 
  -6   2   6    0.12    0.03 
  -6  -2   6    0.10    0.03 
  -6   2   5    0.04    0.02 
  -6   2   5    0.02    0.02 
  -6  -2   5    0.03    0.02 
  -6   2   4    4.84    0.11 
  -6   2   4    4.70    0.11 
  -6  -2   4    5.00    0.12 
  -6   2   3    3.60    0.08 
  -6   2   3    3.52    0.09 
  -6  -2   3    3.65    0.10 
  -6   2   2   15.59    0.26 
  -6   2   2   15.31    0.23 
  -6  -2   2   15.47    0.26 
  -6   2   1    1.90    0.05 
   6   2  -1    1.93    0.06 
  -6   2   1    1.80    0.06 
  -6  -2   1    1.77    0.06 
  -6   2   0    0.22    0.02 
   6   2   0    0.23    0.02 
  -6   2   0    0.20    0.02 
  -6  -2   0    0.23    0.02 
  -6   2  -1    3.60    0.09 
   6   2   1    3.26    0.08 
  -6   2  -1    3.41    0.06 
  -6  -2  -1    3.38    0.08 
   6   2   2    4.61    0.11 
  -6   2  -2    4.63    0.11 
  -6  -2  -2    4.61    0.10 
   6  -2   2    4.65    0.10 
  -6   2  -3    0.80    0.04 
   6   2   3    0.65    0.04 
  -6  -2  -3    0.71    0.04 
  -6   2  -4    8.38    0.18 
   6   2   4    8.28    0.17 
  -6  -2  -4    8.54    0.17 
   6   2   5    0.29    0.03 
  -6   2  -5    0.26    0.03 
  -6  -2  -5    0.35    0.03 
  -6   2  -6    0.08    0.02 
  -6  -2  -6    0.07    0.02 
  -6   2  -7   -0.01    0.02 
  -6   3   8    0.03    0.03 
  -6   3   7    0.62    0.05 
  -6   3   7    0.59    0.05 
  -6  -3   7    0.50    0.05 
  -6   3   6   -0.03    0.01 
  -6   3   6   -0.01    0.02 
  -6  -3   6    0.00    0.02 
  -6   3   5    0.53    0.04 
  -6   3   5    0.50    0.04 
  -6  -3   5    0.49    0.04 
  -6   3   4    0.06    0.02 
  -6   3   4    0.06    0.02 
  -6  -3   4    0.04    0.02 
  -6   3   3    0.32    0.03 
  -6   3   3    0.32    0.03 
  -6  -3   3    0.36    0.03 
  -6   3   2    1.90    0.05 
   6   3  -2    1.99    0.06 
  -6   3   2    1.86    0.06 
  -6  -3   2    2.00    0.06 
   6   3  -1    0.14    0.02 
  -6   3   1    0.13    0.02 
  -6   3   1    0.12    0.02 
  -6  -3   1    0.14    0.02 
  -6   3   0    0.01    0.01 
  -6   3   0   -0.01    0.01 
   6   3   0    0.00    0.01 
  -6  -3   0    0.00    0.01 
  -6   3  -1    3.09    0.06 
  -6   3  -1    3.17    0.08 
   6   3   1    2.98    0.08 
  -6  -3  -1    3.09    0.08 
  -6   3  -2    7.58    0.13 
   6   3   2    7.66    0.15 
  -6   3  -2    7.47    0.15 
  -6  -3  -2    7.16    0.14 
   6   3   3    0.00    0.01 
  -6   3  -3    0.01    0.01 
  -6  -3  -3    0.01    0.01 
  -6   3  -4    0.84    0.05 
   6   3   4    0.74    0.05 
  -6  -3  -4    0.82    0.04 
  -6   3  -5    0.30    0.03 
   6   3   5    0.33    0.03 
  -6   3  -6    0.18    0.03 
   6   3   6    0.21    0.03 
  -6   3  -7   -0.02    0.02 
  -6   4   8    0.25    0.04 
  -6   4   7    0.02    0.02 
  -6  -4   7    0.04    0.03 
  -6   4   6    0.07    0.02 
  -6  -4   6    0.11    0.03 
  -6   4   5    0.07    0.02 
  -6   4   5    0.08    0.02 
  -6  -4   5    0.06    0.03 
  -6   4   4    0.39    0.03 
  -6   4   4    0.40    0.03 
  -6  -4   4    0.36    0.04 
  -6   4   3    1.35    0.05 
  -6   4   3    1.36    0.05 
  -6  -4   3    1.34    0.06 
  -6   4   2    0.19    0.02 
  -6   4   2    0.24    0.02 
   6   4  -2    0.23    0.02 
  -6  -4   2    0.23    0.03 
  -6   4   1    5.22    0.11 
   6   4  -1    5.03    0.12 
  -6   4   1    5.16    0.10 
  -6  -4   1    5.15    0.11 
   6   4   0    0.01    0.01 
  -6   4   0    0.00    0.01 
  -6   4   0    0.01    0.01 
  -6  -4   0    0.01    0.01 
   6   4   1    0.51    0.03 
  -6   4  -1    0.58    0.03 
  -6   4  -1    0.54    0.03 
  -6  -4  -1    0.53    0.03 
  -6   4  -2    0.23    0.03 
   6   4   2    0.23    0.03 
  -6   4  -2    0.26    0.02 
  -6  -4  -2    0.21    0.02 
   6   4   3    0.05    0.02 
  -6   4  -3    0.04    0.02 
   6   4   4    0.84    0.05 
  -6   4  -4    0.80    0.05 
   6   4   5    0.00    0.02 
  -6   4  -5   -0.02    0.02 
   6   4   6    0.18    0.03 
  -6   4  -6    0.13    0.03 
   6   4   7    0.02    0.02 
  -6   5   7    0.03    0.03 
  -6  -5   7    0.04    0.03 
  -6   5   6    4.19    0.12 
  -6   5   5    0.53    0.04 
  -6  -5   5    0.57    0.05 
  -6   5   4    0.12    0.02 
  -6  -5   4    0.12    0.03 
   6   5  -3    0.02    0.01 
  -6   5   3    0.00    0.01 
  -6   5   3    0.00    0.01 
  -6  -5   3    0.01    0.02 
  -6   5   2    2.02    0.06 
   6   5  -2    2.04    0.06 
  -6   5   2    1.93    0.06 
   6   5  -2    1.84    0.06 
  -6  -5   2    1.92    0.07 
  -6   5   1    2.54    0.07 
   6   5  -1    2.47    0.08 
  -6   5   1    2.46    0.07 
  -6  -5   1    2.42    0.07 
  -6   5   0    0.26    0.02 
   6   5   0    0.28    0.03 
  -6   5   0    0.28    0.02 
  -6  -5   0    0.28    0.02 
   6   5   1    1.53    0.06 
  -6   5  -1    1.51    0.05 
  -6   5  -1    1.34    0.05 
  -6  -5  -1    1.41    0.05 
   6   5   2    0.77    0.05 
  -6   5  -2    0.83    0.04 
  -6   5  -2    0.81    0.04 
   6   5   3    0.02    0.02 
  -6   5  -3   -0.01    0.01 
  -6   5  -3   -0.01    0.01 
   6   5   4    0.01    0.02 
  -6   5  -4   -0.01    0.01 
   6   5   5    0.09    0.03 
  -6   5  -5    0.04    0.02 
   6   5   6    0.16    0.03 
  -6   5  -6    0.09    0.03 
   6   5   7    0.01    0.02 
  -6   6   7   -0.01    0.02 
  -6   6   6    0.16    0.03 
  -6  -6   6    0.25    0.04 
  -6   6   5    1.40    0.06 
  -6  -6   5    1.29    0.07 
  -6   6   4    1.15    0.06 
  -6  -6   4    1.12    0.06 
  -6   6   3    1.39    0.06 
   6   6  -3    1.38    0.06 
  -6  -6   3    1.37    0.06 
   6   6  -2    0.92    0.05 
  -6   6   2    0.91    0.04 
   6   6  -2    0.98    0.04 
  -6   6   2    0.86    0.04 
  -6  -6   2    0.91    0.05 
   6   6  -1    0.06    0.02 
  -6   6   1    0.09    0.02 
  -6   6   1    0.09    0.02 
  -6  -6   1    0.07    0.02 
  -6   6   0   13.05    0.23 
   6   6   0   12.98    0.24 
  -6   6   0   13.22    0.22 
  -6   6  -1    5.77    0.12 
   6   6   1    5.70    0.13 
  -6   6  -1    5.69    0.13 
  -6   6  -2    2.24    0.08 
  -6   6  -2    2.30    0.07 
   6   6   2    2.25    0.08 
  -6   6  -3    5.01    0.11 
   6   6   3    4.69    0.13 
  -6   6  -3    4.83    0.13 
   6   6   4    1.21    0.06 
  -6   6  -4    1.20    0.06 
  -6   6  -5    0.31    0.04 
   6   6   5    0.37    0.04 
  -6   6  -6    0.00    0.02 
   6   6   6    0.01    0.02 
  -6   7   6    0.05    0.03 
  -6  -7   6    0.10    0.03 
  -6   7   5    0.13    0.03 
  -6  -7   5    0.11    0.03 
  -6   7   4    0.05    0.02 
  -6  -7   4    0.01    0.02 
  -6   7   3    0.65    0.04 
   6   7  -3    0.59    0.04 
   6   7  -3    0.60    0.04 
  -6  -7   3    0.54    0.04 
   6   7  -2    1.83    0.07 
  -6   7   2    1.80    0.07 
   6   7  -1    0.36    0.03 
  -6   7   1    0.41    0.03 
  -6   7   0    2.28    0.07 
  -6   7   0    2.01    0.07 
   6   7   0    1.93    0.07 
   6   7   1    0.43    0.04 
  -6   7  -1    0.43    0.04 
  -6   7  -1    0.39    0.04 
  -6   7  -2   16.16    0.29 
   6   7   2   16.67    0.30 
  -6   7  -2   16.70    0.28 
   6   7   3    0.21    0.03 
  -6   7  -3    0.23    0.03 
  -6   7  -3    0.23    0.03 
   6   7   4    0.03    0.02 
  -6   7  -4    0.15    0.03 
  -6   7  -4    0.00    0.02 
   6   7   5    0.45    0.05 
  -6   7  -5    0.49    0.05 
   6   7   6    0.87    0.06 
  -6   8   6    0.11    0.03 
  -6  -8   6    0.18    0.04 
  -6   8   5    0.03    0.02 
  -6  -8   5    0.01    0.03 
  -6   8   4    0.49    0.04 
   6   8  -3    1.86    0.07 
  -6   8   3    1.90    0.07 
   6   8  -2    3.06    0.09 
  -6   8   2    2.80    0.09 
   6   8  -1    0.00    0.02 
  -6   8   1    0.03    0.02 
  -6   8   0    0.01    0.02 
   6   8   0    0.07    0.02 
  -6   8  -1    1.29    0.06 
   6   8   1    1.30    0.06 
  -6   8  -2    0.64    0.04 
   6   8   2    0.58    0.05 
  -6   8  -2    0.64    0.05 
  -6   8  -3    0.01    0.02 
   6   8   3    0.02    0.02 
  -6   8  -3    0.02    0.02 
   6   8   4    4.19    0.13 
  -6   8  -4    4.35    0.13 
  -6   8  -4    4.33    0.12 
  -6   8  -5    0.24    0.04 
   6   8   5    0.29    0.04 
  -6   9   5    0.15    0.03 
   6   9  -4    0.01    0.02 
  -6   9   4    0.01    0.02 
  -6   9   3    1.62    0.07 
  -6   9   2    0.97    0.06 
   6   9  -1    0.25    0.03 
  -6   9   1    0.25    0.03 
   6   9   0    0.02    0.02 
  -6   9   0    0.03    0.02 
   6   9   1    0.00    0.02 
  -6   9  -1    0.00    0.02 
   6   9   2    0.43    0.04 
  -6   9  -2    0.39    0.04 
  -6   9  -3    0.08    0.03 
   6   9   3    0.13    0.03 
  -6   9  -4    0.44    0.05 
   6   9   4    0.32    0.04 
  -6   9  -4    0.33    0.04 
  -6  10   4    1.19    0.07 
  -6  10   3   -0.01    0.02 
  -6  10   2    0.21    0.03 
  -6  10   1    0.39    0.04 
  -6  10   0    0.05    0.03 
   6  10   0    0.07    0.03 
  -6  10  -1   -0.01    0.02 
   6  10   1    0.01    0.02 
  -6  10  -2    0.02    0.02 
   6  10   2    0.02    0.03 
  -6  10  -3    0.03    0.02 
   6  10   3    0.03    0.02 
  -6  11   2    0.01    0.02 
  -6  11   1    0.11    0.03 
  -6  11   0    0.10    0.03 
  -6  11  -1    0.22    0.04 
   6  11   1    0.22    0.04 
  -7   0   8    0.85    0.06 
  -7   0   8    0.84    0.07 
  -7   0   7   -0.04    0.02 
  -7   0   7   -0.01    0.02 
  -7   0   6    9.74    0.21 
  -7   0   5    0.03    0.02 
  -7   0   4    8.09    0.15 
  -7   0   4    7.79    0.17 
  -7   0   3    0.07    0.02 
  -7   0   3    0.03    0.01 
  -7   0   2   20.80    0.34 
  -7   0   1    0.00    0.01 
  -7   0   0    0.45    0.03 
   7   0   0    0.45    0.03 
   7   0   1    0.00    0.01 
  -7   0  -1    0.01    0.01 
   7   0   2    0.14    0.02 
  -7   0  -2    0.11    0.02 
  -7   0  -3    0.01    0.01 
   7   0   3    0.01    0.01 
  -7   0  -4    3.30    0.10 
   7   0   4    3.16    0.09 
  -7   0  -5    0.02    0.02 
  -7   0  -6    0.00    0.02 
  -7   0  -7    0.02    0.02 
  -7   1   8    0.18    0.04 
  -7   1   8    0.22    0.04 
  -7   1   7    0.02    0.03 
  -7   1   7    0.02    0.02 
  -7  -1   7    0.01    0.03 
  -7   1   6    0.19    0.03 
  -7   1   6    0.24    0.03 
  -7  -1   6    0.18    0.04 
  -7   1   5    1.92    0.07 
  -7   1   5    2.02    0.07 
  -7  -1   5    1.91    0.08 
  -7   1   4   33.47    0.48 
  -7   1   4   32.94    0.52 
  -7  -1   4   33.47    0.53 
  -7   1   3    8.73    0.18 
  -7   1   3    8.86    0.15 
  -7  -1   3    8.80    0.18 
  -7   1   2   10.63    0.20 
  -7   1   2   10.87    0.17 
  -7  -1   2   10.42    0.20 
   7   1  -1    0.10    0.02 
  -7   1   1    0.07    0.02 
  -7  -1   1    0.10    0.02 
  -7   1   0    2.19    0.07 
   7   1   0    2.08    0.07 
  -7  -1   0    2.13    0.07 
  -7   1  -1    0.00    0.01 
   7   1   1    0.02    0.01 
   7  -1   1    0.00    0.01 
  -7  -1  -1    0.05    0.01 
  -7   1  -2    0.08    0.02 
   7   1   2    0.04    0.02 
   7  -1   2    0.05    0.02 
  -7  -1  -2    0.03    0.01 
   7   1   3    2.06    0.07 
  -7   1  -3    2.16    0.07 
  -7  -1  -3    2.16    0.07 
   7  -1   3    2.13    0.06 
   7   1   4    1.89    0.07 
  -7   1  -4    1.97    0.07 
  -7  -1  -4    1.94    0.07 
  -7   1  -5    0.17    0.03 
  -7  -1  -5    0.15    0.03 
  -7   1  -6    0.38    0.04 
  -7  -1  -6    0.31    0.04 
  -7   1  -7   -0.02    0.02 
  -7  -1  -7   -0.03    0.02 
  -7   2   8    0.05    0.03 
  -7   2   8    0.10    0.03 
  -7   2   7    0.19    0.03 
  -7   2   7    0.12    0.03 
  -7  -2   7    0.20    0.04 
  -7   2   6    1.73    0.07 
  -7   2   6    1.78    0.07 
  -7  -2   6    1.52    0.08 
  -7   2   5   -0.02    0.02 
  -7   2   5   -0.01    0.02 
  -7  -2   5    0.03    0.02 
  -7   2   4    3.90    0.09 
  -7   2   4    4.00    0.11 
  -7  -2   4    4.04    0.11 
  -7   2   3    0.27    0.03 
  -7   2   3    0.20    0.02 
  -7  -2   3    0.20    0.03 
  -7   2   2    9.40    0.15 
  -7   2   2    8.88    0.18 
  -7  -2   2    9.18    0.18 
  -7   2   1    3.47    0.09 
   7   2  -1    3.48    0.09 
  -7  -2   1    3.51    0.09 
   7   2   0   11.34    0.21 
  -7   2   0   11.22    0.21 
  -7  -2   0   11.24    0.20 
  -7   2  -1    1.57    0.06 
   7   2   1    1.57    0.06 
  -7  -2  -1    1.60    0.06 
   7   2   2    0.26    0.03 
  -7   2  -2    0.35    0.03 
  -7  -2  -2    0.32    0.03 
   7  -2   2    0.32    0.03 
  -7   2  -3    0.42    0.04 
   7   2   3    0.38    0.03 
  -7  -2  -3    0.36    0.03 
   7   2   4    0.19    0.03 
  -7   2  -4    0.16    0.03 
  -7  -2  -4    0.14    0.02 
   7   2   5    0.15    0.03 
  -7   2  -5    0.16    0.03 
  -7  -2  -5    0.15    0.03 
  -7   2  -6    0.63    0.05 
  -7   2  -7    0.00    0.02 
  -7   3   8    0.12    0.03 
  -7   3   7    0.57    0.05 
  -7   3   7    0.58    0.05 
  -7  -3   7    0.64    0.06 
  -7   3   6    0.02    0.02 
  -7   3   6    0.01    0.02 
  -7  -3   6    0.00    0.02 
  -7   3   5    1.12    0.06 
  -7   3   5    1.08    0.05 
  -7  -3   5    1.14    0.06 
  -7   3   4    0.02    0.02 
  -7   3   4    0.03    0.02 
  -7  -3   4    0.03    0.02 
  -7   3   3    0.02    0.01 
  -7   3   3    0.03    0.02 
  -7  -3   3    0.06    0.02 
   7   3  -2    0.31    0.03 
  -7   3   2    0.37    0.03 
  -7   3   2    0.38    0.03 
  -7  -3   2    0.35    0.03 
  -7   3   1    1.01    0.05 
   7   3  -1    1.04    0.05 
  -7   3   1    0.99    0.04 
  -7  -3   1    1.00    0.05 
   7   3   0    0.06    0.02 
  -7   3   0    0.07    0.02 
  -7  -3   0    0.09    0.02 
  -7   3  -1    0.46    0.03 
   7   3   1    0.48    0.04 
  -7  -3  -1    0.54    0.03 
   7   3   2    0.07    0.02 
  -7   3  -2    0.05    0.02 
  -7  -3  -2    0.05    0.02 
   7   3   3    0.97    0.05 
  -7   3  -3    0.99    0.05 
  -7  -3  -3    1.06    0.05 
  -7   3  -4    1.78    0.07 
   7   3   4    1.95    0.08 
  -7  -3  -4    2.04    0.07 
   7   3   5    0.01    0.02 
  -7   3  -5    0.03    0.02 
  -7   3  -6    0.62    0.05 
   7   3   6    0.73    0.05 
  -7   4   7    0.01    0.02 
  -7  -4   7    0.04    0.03 
  -7   4   6    0.93    0.05 
  -7  -4   6    1.09    0.07 
  -7   4   5    0.31    0.03 
  -7   4   5    0.31    0.03 
  -7  -4   5    0.32    0.04 
  -7   4   4    0.43    0.04 
  -7   4   4    0.43    0.03 
  -7  -4   4    0.51    0.04 
  -7   4   3    0.50    0.03 
  -7   4   3    0.51    0.03 
  -7  -4   3    0.47    0.04 
  -7   4   2   -0.01    0.01 
  -7   4   2   -0.01    0.01 
   7   4  -2   -0.01    0.01 
  -7  -4   2   -0.01    0.01 
  -7   4   1    1.05    0.04 
   7   4  -1    1.00    0.05 
  -7   4   1    1.04    0.05 
  -7  -4   1    1.02    0.05 
   7   4   0    0.08    0.02 
  -7   4   0    0.06    0.01 
  -7   4   0    0.07    0.02 
  -7  -4   0    0.05    0.02 
   7   4   1    1.22    0.05 
  -7   4  -1    1.21    0.05 
  -7  -4  -1    1.10    0.05 
  -7   4  -2    0.14    0.02 
   7   4   2    0.12    0.02 
  -7  -4  -2    0.14    0.02 
  -7   4  -3    0.02    0.01 
   7   4   3   -0.01    0.01 
   7   4   4    0.07    0.02 
  -7   4  -4    0.04    0.02 
  -7   4  -5    0.09    0.03 
   7   4   5    0.11    0.03 
  -7   4  -6    0.15    0.03 
   7   4   6    0.14    0.03 
  -7   5   7    0.06    0.03 
  -7   5   6   -0.01    0.02 
  -7  -5   6    0.00    0.02 
  -7   5   5    0.35    0.04 
  -7  -5   5    0.33    0.04 
  -7   5   4    8.46    0.17 
  -7   5   4    8.10    0.17 
  -7  -5   4    8.42    0.18 
  -7   5   3    1.20    0.05 
   7   5  -3    1.16    0.06 
  -7   5   3    1.18    0.05 
  -7  -5   3    1.24    0.06 
  -7   5   2    2.07    0.07 
  -7   5   2    2.07    0.07 
   7   5  -2    2.28    0.08 
  -7  -5   2    2.30    0.07 
   7   5  -1    0.08    0.02 
  -7   5   1    0.14    0.02 
  -7   5   1    0.14    0.02 
  -7  -5   1    0.10    0.02 
  -7   5   0    0.66    0.04 
  -7   5   0    0.64    0.04 
   7   5   0    0.64    0.04 
  -7  -5   0    0.59    0.03 
   7   5   1    1.06    0.05 
  -7   5  -1    1.00    0.05 
   7   5   2    0.20    0.03 
  -7   5  -2    0.15    0.02 
  -7   5  -3    1.81    0.07 
   7   5   3    1.83    0.08 
  -7   5  -4    0.03    0.02 
   7   5   4    0.02    0.02 
  -7   5  -5    0.08    0.03 
   7   5   5    0.15    0.03 
  -7   5  -6    0.01    0.02 
   7   5   6   -0.01    0.02 
  -7   6   7    0.28    0.04 
  -7   6   6    0.03    0.02 
  -7  -6   6    0.03    0.03 
  -7   6   5   -0.03    0.02 
  -7  -6   5    0.04    0.03 
  -7   6   4    0.02    0.02 
  -7  -6   4    0.03    0.02 
  -7   6   3    2.18    0.07 
   7   6  -3    2.09    0.08 
  -7  -6   3    2.20    0.08 
  -7   6   2    1.09    0.05 
  -7   6   2    1.06    0.05 
   7   6  -2    1.09    0.05 
  -7  -6   2    1.12    0.05 
  -7   6   1    2.37    0.07 
   7   6  -1    2.15    0.08 
  -7   6   1    2.15    0.07 
  -7  -6   1    2.06    0.07 
  -7   6   0    0.16    0.02 
  -7   6   0    0.15    0.02 
   7   6   0    0.16    0.03 
  -7   6  -1    0.19    0.03 
  -7   6  -1    0.20    0.02 
   7   6   1    0.16    0.03 
  -7   6  -2    5.20    0.13 
   7   6   2    5.23    0.14 
   7   6   3    0.51    0.04 
  -7   6  -3    0.53    0.04 
  -7   6  -4    2.34    0.09 
   7   6   4    2.22    0.09 
   7   6   5    1.23    0.07 
  -7   6  -5    1.23    0.07 
   7   6   6    0.31    0.04 
  -7   7   6   -0.02    0.02 
  -7  -7   6   -0.04    0.03 
  -7   7   5   -0.01    0.02 
  -7  -7   5    0.04    0.03 
  -7   7   4    0.07    0.02 
  -7  -7   4    0.07    0.03 
   7   7  -3    0.19    0.03 
  -7   7   3    0.19    0.03 
  -7  -7   3    0.19    0.03 
   7   7  -2    0.17    0.03 
  -7   7   2    0.26    0.03 
  -7   7   1    0.18    0.03 
   7   7  -1    0.15    0.03 
  -7   7   0    0.59    0.04 
  -7   7   0    0.65    0.04 
   7   7   0    0.58    0.04 
  -7   7  -1    0.46    0.04 
   7   7   1    0.38    0.04 
  -7   7  -1    0.45    0.04 
  -7   7  -2    0.01    0.02 
   7   7   2    0.02    0.02 
   7   7   3    1.17    0.07 
  -7   7  -3    1.25    0.07 
   7   7   4    4.14    0.13 
  -7   7  -4    4.32    0.13 
  -7   7  -5    0.34    0.04 
   7   7   5    0.35    0.04 
  -7   8   5    0.47    0.05 
  -7   8   4    0.97    0.06 
  -7   8   3    0.10    0.03 
  -7   8   2    0.43    0.04 
   7   8  -2    0.46    0.04 
  -7   8   1    0.54    0.04 
   7   8  -1    0.46    0.04 
  -7   8   0    2.16    0.08 
   7   8   0    2.24    0.09 
   7   8   1    0.01    0.02 
  -7   8  -1   -0.01    0.02 
   7   8   2    0.05    0.03 
  -7   8  -2    0.10    0.02 
  -7   8  -2    0.08    0.02 
  -7   8  -3    0.34    0.04 
   7   8   3    0.37    0.04 
  -7   8  -4    0.24    0.04 
   7   8   4    0.20    0.04 
   7   8   5    0.02    0.03 
  -7   9   4    1.69    0.08 
  -7   9   3    0.42    0.04 
  -7   9   2    0.25    0.03 
  -7   9   1    2.64    0.09 
   7   9  -1    2.83    0.10 
  -7   9   0    0.73    0.05 
   7   9   0    0.84    0.06 
  -7   9  -1    0.91    0.06 
   7   9   1    0.84    0.06 
   7   9   2   -0.02    0.02 
  -7   9  -2    0.00    0.02 
   7   9   3    0.13    0.03 
  -7   9  -4    0.16    0.03 
   7   9   4    0.12    0.04 
  -7  10   3    0.10    0.03 
  -7  10   2    1.01    0.06 
  -7  10   1    0.26    0.04 
   7  10   0    0.53    0.05 
  -7  10   0    0.56    0.05 
   7  10   1    0.03    0.03 
  -7  10  -1    0.08    0.03 
   7  10   2    0.06    0.03 
  -7  10  -2    0.06    0.03 
  -8   0   7   -0.01    0.02 
  -8   0   7    0.01    0.02 
  -8   0   6    4.47    0.13 
  -8   0   6    4.62    0.12 
  -8   0   5   -0.01    0.02 
  -8   0   5   -0.03    0.02 
  -8   0   4   11.03    0.22 
  -8   0   4   11.30    0.19 
  -8   0   3   -0.01    0.02 
  -8   0   2   52.39    0.79 
  -8   0   1    0.01    0.02 
  -8   0   0    0.69    0.04 
   8   0   0    0.72    0.04 
   8   0   1    0.01    0.01 
  -8   0  -1    0.00    0.01 
   8   0   2    0.61    0.04 
  -8   0  -2    0.62    0.04 
   8   0   3   -0.01    0.02 
  -8   0  -3    0.00    0.01 
  -8   0  -4    0.04    0.02 
  -8   0  -5    0.00    0.02 
  -8   0  -6    0.71    0.06 
  -8   1   7    0.83    0.05 
  -8   1   7    0.81    0.06 
  -8  -1   7    0.86    0.06 
  -8   1   6    0.00    0.02 
  -8   1   6   -0.02    0.02 
  -8  -1   6    0.02    0.02 
  -8   1   5    0.60    0.04 
  -8   1   5    0.60    0.05 
  -8  -1   5    0.51    0.04 
  -8   1   4    1.11    0.05 
  -8   1   4    1.12    0.06 
  -8  -1   4    1.22    0.06 
  -8   1   3    5.55    0.14 
  -8  -1   3    5.80    0.14 
  -8   1   2   17.17    0.30 
  -8  -1   2   17.71    0.30 
  -8   1   1   12.50    0.23 
  -8  -1   1   13.00    0.24 
   8   1   0   11.82    0.22 
  -8   1   0   12.44    0.23 
  -8  -1   0   12.17    0.23 
  -8   1  -1   -0.02    0.01 
   8   1   1    0.02    0.02 
  -8  -1  -1    0.00    0.01 
   8  -1   1    0.01    0.01 
  -8   1  -2    0.44    0.04 
   8   1   2    0.39    0.03 
  -8  -1  -2    0.43    0.03 
   8  -1   2    0.43    0.03 
   8   1   3    0.04    0.02 
  -8   1  -3    0.07    0.02 
  -8  -1  -3    0.03    0.02 
   8  -1   3    0.02    0.02 
   8   1   4    0.04    0.02 
  -8   1  -4    0.02    0.02 
  -8  -1  -4    0.04    0.02 
  -8   1  -5    0.44    0.04 
  -8  -1  -5    0.38    0.04 
  -8   1  -6    0.03    0.02 
  -8  -1  -6    0.04    0.02 
  -8   2   7    0.02    0.02 
  -8   2   7    0.01    0.02 
  -8  -2   7    0.09    0.03 
  -8   2   6    0.19    0.03 
  -8   2   6    0.15    0.03 
  -8  -2   6    0.16    0.03 
  -8   2   5    0.00    0.02 
  -8   2   5   -0.01    0.02 
  -8  -2   5    0.02    0.02 
  -8   2   4    1.86    0.06 
  -8   2   4    1.88    0.07 
  -8  -2   4    1.90    0.08 
  -8   2   3    0.25    0.03 
  -8  -2   3    0.30    0.03 
  -8   2   2    8.39    0.17 
  -8  -2   2    8.44    0.17 
  -8   2   1    0.57    0.04 
   8   2  -1    0.61    0.04 
  -8  -2   1    0.70    0.04 
   8   2   0    5.34    0.13 
  -8   2   0    5.02    0.12 
  -8  -2   0    5.16    0.12 
  -8   2  -1    0.41    0.03 
   8   2   1    0.42    0.03 
  -8  -2  -1    0.38    0.03 
   8   2   2    1.94    0.07 
  -8   2  -2    1.96    0.07 
  -8  -2  -2    1.92    0.07 
   8   2   3    0.39    0.04 
  -8   2  -3    0.42    0.04 
  -8  -2  -3    0.39    0.03 
  -8   2  -4    0.14    0.03 
   8   2   4    0.14    0.03 
  -8  -2  -4    0.09    0.02 
   8   2   5    0.05    0.02 
  -8   2  -5   -0.01    0.02 
  -8  -2  -5   -0.01    0.02 
  -8   2  -6    0.38    0.04 
  -8   3   7    0.00    0.02 
  -8   3   7   -0.02    0.02 
  -8   3   6    0.17    0.03 
  -8   3   6    0.15    0.03 
  -8  -3   6    0.16    0.04 
  -8   3   5    1.00    0.05 
  -8   3   5    0.97    0.05 
  -8  -3   5    0.99    0.06 
  -8   3   4    0.02    0.02 
  -8   3   4   -0.02    0.01 
  -8  -3   4   -0.01    0.02 
  -8   3   3    1.21    0.05 
  -8   3   3    1.16    0.05 
  -8  -3   3    1.20    0.06 
  -8   3   2    0.09    0.02 
   8   3  -2    0.10    0.02 
  -8  -3   2    0.13    0.02 
   8   3  -1    0.06    0.02 
  -8   3   1    0.06    0.02 
  -8  -3   1    0.07    0.02 
   8   3   0    0.79    0.05 
  -8   3   0    0.79    0.04 
  -8  -3   0    0.77    0.04 
  -8   3  -1    1.73    0.07 
   8   3   1    1.83    0.07 
  -8  -3  -1    1.69    0.06 
  -8   3  -2    0.21    0.03 
   8   3   2    0.28    0.03 
  -8  -3  -2    0.24    0.03 
   8   3   3    0.40    0.04 
  -8   3  -3    0.41    0.04 
  -8  -3  -3    0.44    0.04 
  -8   3  -4    0.05    0.02 
   8   3   4    0.04    0.02 
  -8   3  -5    0.14    0.03 
   8   3   5    0.18    0.03 
  -8   3  -6    0.17    0.03 
  -8   4   7    0.00    0.02 
  -8   4   6    0.20    0.03 
  -8  -4   6    0.12    0.03 
  -8   4   5    0.01    0.02 
  -8   4   5    0.02    0.02 
  -8  -4   5    0.02    0.02 
  -8   4   4    0.64    0.04 
  -8   4   4    0.61    0.04 
  -8  -4   4    0.62    0.05 
  -8   4   3    1.16    0.05 
  -8   4   3    1.25    0.05 
  -8  -4   3    1.25    0.06 
  -8   4   2    1.82    0.07 
   8   4  -2    1.89    0.07 
  -8  -4   2    1.84    0.07 
  -8   4   1    1.01    0.05 
   8   4  -1    1.00    0.05 
  -8  -4   1    0.98    0.05 
   8   4   0    0.09    0.02 
  -8   4   0    0.08    0.02 
  -8  -4   0    0.05    0.02 
  -8   4  -1    0.28    0.03 
   8   4   1    0.28    0.03 
  -8  -4  -1    0.35    0.03 
  -8   4  -2    0.32    0.03 
   8   4   2    0.32    0.03 
  -8  -4  -2    0.28    0.03 
   8   4   3    0.03    0.02 
  -8   4  -3    0.07    0.02 
  -8   4  -4    0.08    0.02 
   8   4   4    0.09    0.03 
   8   4   5    0.06    0.03 
  -8   4  -5    0.08    0.03 
   8   4   6    0.04    0.03 
  -8   5   7   -0.01    0.02 
  -8   5   6    0.08    0.03 
  -8  -5   6    0.13    0.03 
  -8   5   5    0.19    0.03 
  -8  -5   5    0.20    0.04 
  -8   5   4    0.70    0.04 
  -8   5   4    0.67    0.04 
  -8  -5   4    0.73    0.05 
  -8   5   3    0.69    0.04 
  -8   5   3    0.80    0.04 
  -8  -5   3    0.70    0.05 
  -8   5   2    5.74    0.14 
  -8   5   2    6.07    0.13 
   8   5  -2    6.06    0.14 
  -8  -5   2    6.01    0.14 
   8   5  -1    0.94    0.05 
  -8   5   1    0.96    0.05 
  -8  -5   1    0.95    0.05 
  -8   5   0    3.16    0.10 
   8   5   0    3.35    0.10 
  -8  -5   0    3.39    0.09 
  -8   5  -1    0.11    0.02 
   8   5   1    0.11    0.03 
  -8   5  -2    0.03    0.02 
   8   5   2    0.02    0.02 
  -8   5  -3    0.06    0.02 
   8   5   3    0.14    0.03 
   8   5   4    0.39    0.04 
  -8   5  -4    0.35    0.04 
   8   5   5    0.75    0.06 
  -8   5  -5    0.62    0.05 
   8   5   6    0.01    0.03 
  -8   6   6    0.54    0.05 
  -8   6   5    0.55    0.05 
  -8  -6   5    0.52    0.05 
  -8   6   4    0.00    0.02 
  -8  -6   4   -0.01    0.02 
  -8   6   3    0.04    0.02 
   8   6  -3    0.03    0.02 
  -8  -6   3    0.09    0.02 
  -8   6   2    1.44    0.06 
  -8   6   2    1.28    0.06 
   8   6  -2    1.28    0.06 
  -8  -6   2    1.38    0.06 
   8   6  -1    1.03    0.06 
  -8   6   1    1.06    0.05 
  -8   6   0    0.02    0.02 
   8   6   0    0.06    0.02 
  -8   6  -1    1.85    0.07 
   8   6   1    1.87    0.08 
   8   6   2    0.04    0.02 
  -8   6  -2    0.01    0.02 
   8   6   3    0.30    0.04 
  -8   6  -3    0.30    0.04 
   8   6   4    0.48    0.05 
  -8   6  -4    0.52    0.05 
   8   6   5    0.09    0.03 
  -8   7   5    0.26    0.04 
  -8  -7   5    0.26    0.04 
  -8   7   4    0.04    0.02 
  -8  -7   4    0.02    0.02 
   8   7  -3    0.37    0.04 
  -8   7   3    0.48    0.04 
   8   7  -2    0.01    0.02 
  -8   7   2    0.02    0.02 
  -8   7   1    1.28    0.06 
   8   7  -1    1.16    0.06 
   8   7   0    0.32    0.04 
  -8   7   0    0.28    0.03 
   8   7   1    0.00    0.02 
  -8   7  -1    0.03    0.02 
   8   7   2   -0.01    0.02 
  -8   7  -2    0.00    0.02 
  -8   7  -3    0.06    0.02 
   8   7   3    0.04    0.03 
  -8   7  -4    0.25    0.04 
   8   7   4    0.26    0.04 
   8   7   5    0.43    0.05 
  -8   8   5    0.79    0.06 
  -8   8   4    0.50    0.04 
  -8   8   3    1.19    0.06 
  -8   8   2    1.49    0.07 
   8   8  -2    1.43    0.07 
  -8   8   1    0.13    0.03 
   8   8  -1    0.17    0.03 
   8   8   0    0.03    0.02 
   8   8   1    0.01    0.02 
   8   8   2    0.47    0.05 
  -8   8  -2    0.44    0.04 
  -8   8  -3    0.01    0.02 
   8   8   3   -0.01    0.02 
   8   8   4    0.05    0.03 
  -8   9   3    0.44    0.04 
  -8   9   2    0.82    0.06 
  -8   9   1    0.27    0.04 
   8   9  -1    0.26    0.04 
   8   9   0    0.79    0.06 
   8   9   1    1.34    0.07 
   8   9   2    0.34    0.04 
   8   9   3    0.36    0.05 
  -8  10   1    0.18    0.03 
   8  10  -1    0.14    0.03 
  -8  10   0    0.05    0.03 
   8  10   0    0.12    0.03 
   8  10   1    0.33    0.04 
  -9   0   6    0.14    0.03 
  -9   0   5   -0.01    0.02 
  -9   0   4    6.60    0.16 
  -9   0   3    0.01    0.02 
  -9   0   2    3.57    0.10 
  -9   0   1    0.08    0.02 
  -9   0   0   58.76    0.88 
  -9   0  -1    0.01    0.01 
   9   0   1    0.02    0.02 
  -9   0  -2    2.37    0.08 
   9   0   2    2.24    0.08 
   9   0   3    0.00    0.02 
  -9   0  -3   -0.01    0.02 
  -9   0  -4    0.06    0.02 
  -9   0  -5   -0.02    0.02 
  -9   0  -6    0.03    0.03 
  -9   1   7    0.18    0.04 
  -9   1   7    0.09    0.03 
  -9   1   6    0.10    0.03 
  -9  -1   6    0.09    0.03 
  -9   1   5    1.86    0.08 
  -9  -1   5    1.84    0.08 
  -9   1   4    0.65    0.05 
  -9  -1   4    0.61    0.05 
  -9   1   3    1.13    0.06 
  -9  -1   3    1.10    0.06 
  -9   1   2    4.05    0.11 
  -9  -1   2    3.90    0.11 
  -9   1   1    4.08    0.11 
  -9  -1   1    4.17    0.11 
  -9   1   0    0.44    0.04 
   9   1   0    0.39    0.04 
  -9  -1   0    0.45    0.04 
   9   1   1    6.01    0.14 
  -9   1  -1    6.08    0.14 
  -9  -1  -1    6.03    0.14 
   9   1   2    4.11    0.11 
  -9   1  -2    4.30    0.12 
  -9  -1  -2    4.06    0.11 
   9  -1   2    4.19    0.11 
  -9   1  -3    0.01    0.02 
   9   1   3    0.03    0.02 
  -9  -1  -3    0.05    0.02 
   9   1   4    0.00    0.02 
  -9   1  -4    0.00    0.02 
  -9  -1  -4   -0.01    0.02 
  -9   1  -5    0.06    0.03 
  -9  -1  -5    0.08    0.03 
  -9   1  -6   -0.01    0.02 
  -9  -1  -6    0.01    0.02 
  -9   2   7    0.08    0.03 
  -9   2   7    0.10    0.03 
  -9   2   6    0.03    0.02 
  -9   2   6    0.02    0.02 
  -9  -2   6   -0.03    0.02 
  -9   2   5    0.22    0.03 
  -9  -2   5    0.25    0.04 
  -9   2   4    0.20    0.03 
  -9  -2   4    0.25    0.03 
  -9   2   3    0.33    0.03 
  -9  -2   3    0.35    0.03 
  -9   2   2    0.23    0.03 
  -9  -2   2    0.23    0.03 
   9   2  -1    2.12    0.08 
  -9   2   1    2.06    0.08 
  -9  -2   1    2.21    0.08 
   9   2   0    4.68    0.12 
  -9   2   0    4.60    0.12 
  -9  -2   0    4.75    0.12 
  -9   2  -1    0.77    0.05 
   9   2   1    0.83    0.05 
  -9  -2  -1    0.80    0.05 
  -9   2  -2    1.65    0.07 
   9   2   2    1.78    0.07 
  -9  -2  -2    1.62    0.07 
  -9   2  -3   -0.02    0.01 
   9   2   3    0.01    0.02 
  -9  -2  -3    0.01    0.02 
   9   2   4    0.11    0.03 
  -9   2  -4    0.10    0.03 
  -9  -2  -4    0.13    0.03 
  -9   2  -5    0.01    0.02 
  -9  -2  -5    0.03    0.02 
  -9   3   7    0.17    0.03 
  -9   3   7    0.23    0.04 
  -9   3   6    0.27    0.03 
  -9   3   6    0.27    0.04 
  -9  -3   6    0.21    0.04 
  -9   3   5    0.20    0.03 
  -9  -3   5    0.18    0.03 
  -9   3   4    0.00    0.02 
  -9  -3   4    0.04    0.02 
  -9   3   3    0.62    0.04 
  -9  -3   3    0.62    0.05 
  -9   3   2   -0.01    0.01 
  -9  -3   2    0.00    0.01 
  -9   3   1    0.62    0.04 
   9   3  -1    0.73    0.05 
  -9  -3   1    0.62    0.04 
  -9   3   0    0.14    0.02 
   9   3   0    0.11    0.02 
  -9  -3   0    0.11    0.02 
  -9   3  -1    0.00    0.01 
   9   3   1    0.01    0.02 
  -9  -3  -1    0.01    0.01 
  -9   3  -2    0.49    0.04 
   9   3   2    0.53    0.04 
  -9  -3  -2    0.49    0.04 
  -9   3  -3    0.40    0.04 
   9   3   3    0.30    0.04 
  -9  -3  -3    0.35    0.03 
   9   3   4    0.18    0.03 
  -9   3  -4    0.30    0.04 
   9   3   5    0.03    0.02 
  -9   3  -5    0.07    0.03 
  -9   4   6   -0.01    0.02 
  -9  -4   6    0.04    0.03 
  -9   4   5    0.07    0.03 
  -9   4   5    0.07    0.02 
  -9  -4   5    0.06    0.03 
  -9   4   4    0.97    0.05 
  -9  -4   4    1.06    0.06 
  -9   4   3   -0.02    0.01 
  -9  -4   3    0.00    0.02 
  -9   4   2    0.04    0.02 
   9   4  -2    0.03    0.02 
  -9  -4   2    0.01    0.02 
  -9   4   1    2.01    0.08 
   9   4  -1    1.95    0.08 
  -9  -4   1    1.87    0.07 
   9   4   0    1.60    0.07 
  -9   4   0    1.60    0.07 
  -9  -4   0    1.45    0.06 
   9   4   1    0.92    0.05 
  -9   4  -1    0.86    0.05 
  -9  -4  -1    0.83    0.05 
  -9   4  -2    0.10    0.02 
   9   4   2    0.13    0.03 
  -9  -4  -2    0.09    0.02 
  -9   4  -3    0.08    0.02 
   9   4   3    0.10    0.03 
   9   4   4    0.10    0.03 
  -9   4  -4    0.08    0.03 
   9   4   5    0.00    0.02 
  -9   4  -5    0.00    0.02 
  -9   5   6    0.00    0.03 
  -9   5   5    0.18    0.03 
  -9  -5   5    0.22    0.04 
  -9   5   4    0.05    0.02 
  -9  -5   4    0.04    0.02 
  -9   5   3    0.44    0.04 
  -9  -5   3    0.41    0.04 
   9   5  -2    1.32    0.07 
  -9   5   2    1.20    0.06 
  -9  -5   2    1.24    0.06 
  -9   5   1    0.50    0.04 
   9   5  -1    0.45    0.04 
  -9  -5   1    0.46    0.04 
   9   5   0    0.97    0.06 
  -9   5   0    1.05    0.06 
  -9  -5   0    0.96    0.05 
   9   5   1    0.14    0.03 
  -9   5  -1    0.09    0.02 
  -9   5  -2    1.58    0.07 
   9   5   2    1.64    0.07 
  -9   5  -3   -0.01    0.02 
   9   5   3   -0.01    0.02 
  -9   5  -4    0.02    0.02 
   9   5   4    0.01    0.02 
   9   5   5    0.03    0.03 
  -9   6   5   -0.01    0.02 
  -9  -6   5    0.02    0.03 
  -9   6   4    0.66    0.05 
  -9  -6   4    0.52    0.05 
  -9  -6   3    0.49    0.04 
  -9   6   2    0.07    0.02 
   9   6  -2    0.02    0.02 
  -9  -6   2    0.05    0.02 
  -9   6   1    0.11    0.02 
   9   6  -1    0.09    0.03 
  -9   6   0    2.39    0.09 
   9   6   0    2.47    0.09 
   9   6   1    0.18    0.03 
  -9   6  -1    0.13    0.03 
  -9   6  -2    0.21    0.03 
   9   6   2    0.17    0.03 
   9   6   3    0.79    0.06 
  -9   6  -3    0.74    0.06 
  -9   6  -4    0.08    0.03 
   9   6   4    0.07    0.03 
  -9   7   5    0.48    0.05 
  -9   7   4    0.04    0.02 
  -9  -7   4    0.09    0.03 
   9   7  -3    1.43    0.07 
   9   7  -2   -0.02    0.02 
   9   7  -1    0.69    0.05 
  -9   7   0    0.25    0.03 
   9   7   0    0.14    0.03 
   9   7   1    1.04    0.06 
  -9   7  -1    0.95    0.06 
  -9   7  -2    0.13    0.03 
   9   7   2    0.14    0.03 
   9   7   3    0.07    0.03 
  -9   7  -3    0.05    0.02 
   9   7   4    0.00    0.03 
  -9   8   4    0.23    0.04 
   9   8  -2   -0.01    0.02 
   9   8  -1    1.31    0.07 
   9   8   0    0.71    0.06 
   9   8   1    0.12    0.03 
  -9   8  -2   -0.01    0.02 
   9   8   2    0.02    0.02 
   9   8   3    0.03    0.03 
   9   9  -2    1.53    0.08 
   9   9  -1    0.22    0.04 
   9   9   0    0.03    0.02 
   9   9   1    0.05    0.03 
 -10   0   6    0.12    0.03 
 -10   0   5    0.03    0.02 
 -10   0   4    1.95    0.08 
 -10   0   3    0.02    0.02 
 -10   0   2    2.33    0.09 
 -10   0   1   -0.01    0.01 
 -10   0   0    0.02    0.02 
 -10   0  -1    0.02    0.02 
  10   0   1    0.01    0.02 
 -10   0  -2   19.18    0.35 
  10   0   2   19.61    0.34 
  10   0   3    0.00    0.02 
 -10   0  -3   -0.03    0.02 
 -10   0  -4    2.97    0.11 
 -10   0  -5    0.00    0.02 
 -10   1   6    0.05    0.03 
 -10   1   5    0.08    0.03 
 -10  -1   5    0.12    0.03 
 -10   1   4   -0.02    0.02 
 -10  -1   4    0.03    0.02 
 -10   1   3    1.73    0.08 
 -10  -1   3    1.79    0.08 
 -10   1   2    1.99    0.08 
 -10  -1   2    2.26    0.08 
 -10   1   1    0.22    0.03 
 -10  -1   1    0.20    0.03 
  10   1   0    2.37    0.09 
 -10   1   0    2.38    0.09 
 -10  -1   0    2.49    0.09 
 -10   1  -1    0.37    0.04 
  10   1   1    0.32    0.04 
 -10  -1  -1    0.33    0.03 
  10   1   2    1.69    0.07 
 -10   1  -2    1.70    0.08 
 -10  -1  -2    1.82    0.08 
 -10   1  -3    1.33    0.07 
  10   1   3    1.34    0.07 
 -10  -1  -3    1.52    0.07 
 -10   1  -4    0.45    0.05 
 -10  -1  -4    0.40    0.04 
 -10   1  -5    0.01    0.03 
 -10  -1  -5    0.04    0.02 
 -10   2   6    1.88    0.09 
 -10   2   5    0.04    0.02 
 -10  -2   5    0.01    0.02 
 -10   2   4    0.43    0.04 
 -10  -2   4    0.42    0.04 
 -10   2   3    0.13    0.03 
 -10  -2   3    0.19    0.03 
 -10   2   2    0.12    0.02 
 -10  -2   2    0.14    0.03 
 -10   2   1    0.72    0.05 
 -10  -2   1    0.76    0.05 
 -10   2   0    0.14    0.02 
  10   2   0    0.12    0.03 
 -10  -2   0    0.15    0.03 
  10   2   1    2.82    0.10 
 -10   2  -1    2.66    0.09 
 -10  -2  -1    2.74    0.09 
  10   2   2    0.81    0.05 
 -10   2  -2    0.87    0.05 
 -10  -2  -2    0.85    0.05 
  10   2   3    0.83    0.06 
 -10   2  -3    0.97    0.06 
 -10  -2  -3    1.00    0.06 
 -10   2  -4    0.46    0.05 
  10   2   4    0.44    0.04 
 -10  -2  -4    0.45    0.04 
 -10   3   6    0.44    0.04 
 -10   3   5    0.64    0.05 
 -10  -3   5    0.70    0.05 
 -10   3   4    0.15    0.03 
 -10  -3   4    0.12    0.03 
 -10   3   3    0.58    0.04 
 -10  -3   3    0.82    0.05 
 -10   3   2    0.06    0.02 
 -10  -3   2    0.09    0.02 
 -10   3   1    0.11    0.02 
  10   3  -1    0.17    0.03 
 -10  -3   1    0.10    0.02 
 -10   3   0    0.00    0.01 
  10   3   0    0.02    0.02 
 -10  -3   0    0.02    0.02 
  10   3   1    0.07    0.02 
 -10   3  -1    0.10    0.02 
 -10  -3  -1    0.05    0.02 
 -10   3  -2    0.03    0.02 
  10   3   2    0.02    0.02 
 -10  -3  -2    0.04    0.02 
  10   3   3    0.02    0.02 
 -10   3  -3    0.02    0.02 
 -10  -3  -3    0.07    0.02 
 -10   3  -4    0.15    0.03 
  10   3   4    0.09    0.03 
  10   3   5   -0.01    0.02 
 -10   4   5    0.06    0.02 
 -10  -4   5    0.04    0.03 
 -10   4   4    0.05    0.02 
 -10  -4   4    0.00    0.02 
 -10   4   3    0.05    0.02 
 -10  -4   3    0.02    0.02 
 -10   4   2    1.12    0.06 
  10   4  -2    1.31    0.07 
 -10  -4   2    1.37    0.06 
  10   4  -1    0.01    0.02 
 -10   4   1    0.00    0.02 
 -10  -4   1    0.03    0.02 
 -10   4   0    0.45    0.04 
  10   4   0    0.45    0.04 
 -10  -4   0    0.49    0.04 
  10   4   1    1.40    0.07 
 -10   4  -1    1.39    0.07 
 -10  -4  -1    1.40    0.06 
  10   4   2    0.51    0.05 
 -10   4  -2    0.49    0.04 
 -10   4  -3    0.48    0.05 
  10   4   3    0.38    0.04 
 -10   4  -4    0.13    0.03 
  10   4   4    0.21    0.04 
  10   4   5    0.03    0.03 
 -10   5   4    0.01    0.02 
 -10  -5   4    0.03    0.02 
 -10   5   3    0.55    0.04 
 -10  -5   3    0.66    0.05 
 -10   5   2    0.64    0.05 
  10   5  -2    0.54    0.05 
 -10  -5   2    0.59    0.04 
  10   5  -1    0.21    0.03 
 -10   5   1    0.20    0.03 
 -10  -5   1    0.25    0.03 
 -10   5   0    0.63    0.05 
  10   5   0    0.69    0.05 
  10   5   1    0.13    0.03 
 -10   5  -1    0.07    0.02 
 -10   5  -2    0.00    0.02 
  10   5   2    0.01    0.02 
  10   5   3    0.03    0.03 
 -10   5  -3    0.05    0.02 
  10   5   4    0.26    0.04 
 -10  -6   4    0.33    0.04 
 -10  -6   3    0.04    0.02 
 -10   6   2    0.20    0.03 
  10   6  -2    0.16    0.03 
 -10   6   1    0.15    0.03 
  10   6  -1    0.14    0.03 
  10   6   0    0.15    0.03 
 -10   6   0    0.11    0.03 
  10   6   1    0.13    0.03 
 -10   6  -1    0.11    0.03 
 -10   6  -2    1.10    0.07 
  10   6   2    1.17    0.07 
 -10   6  -3    0.00    0.02 
  10   6   3    0.00    0.02 
  10   7  -2    0.02    0.02 
  10   7  -1    1.64    0.08 
  10   7   0   -0.01    0.02 
 -10   7   0   -0.01    0.01 
 -10   7  -1    0.30    0.04 
  10   7   1    0.30    0.04 
 -10   7  -2    0.26    0.04 
  10   7   2    0.28    0.04 
  10   7   3    0.25    0.04 
  10   8  -2    0.73    0.06 
  10   8  -1    0.17    0.04 
  10   8   0    0.42    0.05 
  10   8   1    0.75    0.06 
 -11   0   5    0.03    0.02 
 -11   0   4    0.76    0.05 
 -11   0   3    0.00    0.02 
 -11   0   2    2.80    0.10 
 -11   0   1    0.02    0.02 
 -11   0   0   -0.01    0.01 
 -11   0  -1   -0.01    0.02 
  11   0   2    0.47    0.04 
 -11   0  -2    0.49    0.04 
 -11   0  -3    0.01    0.02 
 -11   0  -4    2.59    0.10 
 -11   1   5    0.40    0.04 
 -11   1   4    0.39    0.04 
 -11  -1   4    0.30    0.04 
 -11   1   3    0.00    0.02 
 -11  -1   3    0.00    0.02 
 -11   1   2    0.14    0.03 
 -11  -1   2    0.11    0.03 
 -11   1   1    0.72    0.05 
 -11  -1   1    0.75    0.05 
 -11   1   0    1.70    0.08 
 -11  -1   0    1.62    0.07 
 -11   1  -1    0.06    0.02 
  11   1   1    0.02    0.02 
 -11  -1  -1    0.05    0.02 
 -11   1  -2    0.38    0.04 
  11   1   2    0.30    0.04 
 -11  -1  -2    0.33    0.04 
  11   1   3    0.13    0.03 
 -11   1  -3    0.16    0.03 
 -11  -1  -3    0.14    0.03 
 -11   1  -4    1.77    0.09 
 -11  -1  -4    1.99    0.09 
 -11   2   5    0.25    0.04 
 -11   2   4    1.56    0.08 
 -11  -2   4    1.61    0.08 
 -11   2   3    0.02    0.02 
 -11  -2   3    0.01    0.02 
 -11   2   2    1.33    0.07 
 -11  -2   2    1.49    0.07 
 -11   2   1    0.06    0.02 
 -11  -2   1    0.05    0.02 
  11   2   0    0.06    0.02 
 -11   2   0    0.11    0.02 
 -11  -2   0    0.07    0.02 
 -11   2  -1    0.28    0.03 
  11   2   1    0.22    0.03 
 -11  -2  -1    0.22    0.03 
  11   2   2    0.24    0.04 
 -11   2  -2    0.30    0.04 
 -11  -2  -2    0.21    0.03 
  11   2   3    1.27    0.07 
 -11   2  -3    1.21    0.07 
 -11  -2  -3    1.31    0.07 
  11   2   4    0.01    0.03 
 -11  -2  -4    0.03    0.02 
 -11   3   5    0.03    0.02 
 -11   3   4    1.85    0.08 
 -11  -3   4    1.83    0.09 
 -11   3   3    0.76    0.05 
 -11  -3   3    0.73    0.05 
 -11   3   2   -0.01    0.01 
 -11  -3   2    0.02    0.02 
 -11   3   1    0.44    0.04 
  11   3  -1    0.44    0.04 
 -11  -3   1    0.42    0.04 
  11   3   0    0.22    0.03 
 -11   3   0    0.16    0.03 
 -11  -3   0    0.17    0.03 
  11   3   1    0.02    0.02 
 -11   3  -1    0.00    0.02 
 -11  -3  -1    0.00    0.02 
 -11   3  -2   -0.02    0.01 
  11   3   2    0.02    0.02 
 -11  -3  -2    0.00    0.02 
  11   3   3    0.03    0.02 
 -11   3  -3    0.02    0.02 
  11   3   4    0.01    0.02 
 -11   4   5    0.02    0.02 
 -11   4   4    0.11    0.03 
 -11  -4   4    0.15    0.03 
 -11   4   3    0.05    0.02 
 -11  -4   3    0.09    0.03 
 -11   4   2    0.05    0.02 
 -11  -4   2    0.05    0.02 
 -11   4   1   -0.01    0.02 
  11   4  -1   -0.01    0.02 
 -11  -4   1    0.02    0.02 
 -11   4   0    0.37    0.04 
  11   4   0    0.39    0.04 
 -11  -4   0    0.44    0.04 
 -11   4  -1    0.00    0.02 
  11   4   1   -0.01    0.02 
 -11  -4  -1    0.01    0.02 
 -11   4  -2    0.36    0.04 
  11   4   2    0.38    0.04 
  11   4   3    0.46    0.05 
  11   4   4    0.09    0.03 
 -11   5   4    0.28    0.04 
 -11   5   3    0.13    0.03 
 -11  -5   3    0.13    0.03 
 -11   5   2    0.00    0.02 
  11   5  -2    0.01    0.02 
 -11  -5   2    0.00    0.02 
  11   5  -1    0.31    0.04 
 -11   5   1    0.26    0.03 
 -11  -5   1    0.27    0.03 
  11   5   0    0.79    0.06 
 -11   5   0    0.73    0.05 
 -11   5  -1    0.06    0.02 
  11   5   1    0.02    0.02 
 -11   5  -2    0.07    0.03 
  11   5   2    0.03    0.02 
  11   5   3   -0.02    0.02 
 -11  -6   3    0.19    0.03 
 -11   6   2    0.45    0.04 
  11   6  -2    0.50    0.05 
 -11   6   1    0.02    0.02 
  11   6  -1    0.06    0.03 
 -11   6   0    0.03    0.02 
  11   6   0    0.06    0.03 
  11   6   1    0.01    0.02 
 -11   6  -1   -0.01    0.02 
  11   6   2    0.11    0.03 
  11   7  -2    0.49    0.05 
  11   7  -1    0.00    0.02 
 -11   7   0   -0.01    0.02 
  11   7   0    0.00    0.03 
  11   7   1    0.52    0.05 
 -12   0   3    0.02    0.02 
 -12   0   2    1.30    0.07 
 -12   0   1    0.00    0.02 
 -12   0   0    1.21    0.07 
 -12   0  -1    0.00    0.02 
 -12   0  -2    0.19    0.03 
 -12   1   3    1.10    0.07 
 -12  -1   3    1.19    0.07 
 -12   1   2    0.32    0.04 
 -12  -1   2    0.31    0.04 
 -12   1   1    0.18    0.03 
 -12  -1   1    0.21    0.03 
 -12   1   0    0.07    0.02 
 -12  -1   0    0.08    0.02 
 -12   1  -1    0.13    0.03 
 -12  -1  -1    0.13    0.03 
  12   1   2    0.39    0.04 
 -12   1  -2    0.37    0.04 
 -12  -1  -2    0.30    0.04 
  12   1   3    0.05    0.03 
 -12  -1  -3    0.09    0.03 
 -12   2   3    0.12    0.03 
 -12  -2   3    0.16    0.03 
 -12   2   2    0.17    0.03 
 -12  -2   2    0.17    0.03 
 -12   2   1    0.01    0.02 
 -12  -2   1    0.04    0.02 
 -12   2   0    0.97    0.06 
 -12  -2   0    1.02    0.06 
 -12   2  -1   -0.02    0.02 
  12   2   1   -0.01    0.02 
 -12  -2  -1   -0.02    0.02 
  12   2   2    0.01    0.02 
 -12  -2  -2    0.02    0.02 
  12   2   3    0.03    0.03 
 -12  -2  -3    0.00    0.02 
 -12   3   3    0.01    0.02 
 -12   3   2    1.90    0.09 
 -12  -3   2    2.05    0.09 
 -12   3   1    0.17    0.03 
 -12  -3   1    0.17    0.03 
  12   3   0    0.14    0.03 
 -12   3   0    0.13    0.03 
 -12  -3   0    0.09    0.03 
 -12   3  -1    0.02    0.02 
  12   3   1    0.09    0.03 
 -12  -3  -1    0.03    0.02 
  12   3   2    0.10    0.03 
 -12  -3  -2    0.10    0.03 
  12   3   3    0.00    0.03 
 -12   4   2    0.72    0.06 
 -12  -4   2    0.82    0.06 
 -12   4   1    0.01    0.02 
  12   4  -1    0.00    0.02 
 -12  -4   1    0.02    0.02 
  12   4   0   -0.01    0.02 
 -12   4   0    0.01    0.02 
 -12  -4   0    0.05    0.02 
  12   4   1   -0.01    0.02 
  12   4   2   -0.03    0.02 
 -12  -5   2    0.13    0.03 
  12   5  -1    0.03    0.03 
  12   5   0    0.01    0.02 
  12   5   1    0.00    0.02 
  13   2   1    0.04    0.03 
   0   0   0    0.00    0.00 
;
loop_
_space_group_symop_operation_xyz
'x, y, z'
'-x, y+1/2, -z+1/2'
'-x, -y, -z'
'x, -y-1/2, z-1/2'
loop_
_atom_site_label
_atom_site_type_symbol
_atom_site_fract_x
_atom_site_fract_y
_atom_site_fract_z
_atom_site_U_iso_or_equiv
_atom_site_adp_type
_atom_site_occupancy
_atom_site_site_symmetry_order
_atom_site_calc_flag
_atom_site_refinement_flags_posn
_atom_site_refinement_flags_adp
_atom_site_refinement_flags_occupancy
_atom_site_disorder_assembly
_atom_site_disorder_group
O1 O 0.58410(12) 1.00465(11) 0.2509(2) 0.0583(4) Uani 1 1 d . . . . .
C1 C 0.84077(15) 0.61084(17) 0.1383(2) 0.0440(4) Uani 1 1 d . . . . .
H1 H 0.848540 0.513108 0.140645 0.053 Uiso 1 1 calc R U . . .
C2 C 0.94451(16) 0.69136(18) 0.0840(2) 0.0445(4) Uani 1 1 d . . . . .
H2 H 1.021405 0.645852 0.052358 0.053 Uiso 1 1 calc R U . . .
C3 C 0.82726(14) 0.89406(16) 0.1202(2) 0.0371(4) Uani 1 1 d . . . . .
C4 C 0.72119(13) 0.81064(15) 0.18054(19) 0.0333(4) Uani 1 1 d . . . . .
C5 C 0.59630(14) 0.87579(15) 0.2387(2) 0.0372(4) Uani 1 1 d . . . . .
N1 N 0.72925(12) 0.67097(13) 0.18749(18) 0.0391(4) Uani 1 1 d . . . . .
N2 N 0.94009(12) 0.83034(14) 0.07467(19) 0.0426(4) Uani 1 1 d . . . . .
N3 N 0.82308(14) 1.03440(14) 0.1044(2) 0.0516(4) Uani 1 1 d . . . . .
H3A H 0.890211 1.079453 0.066743 0.062 Uiso 1 1 calc R U . . .
H3B H 0.753256 1.079695 0.131829 0.062 Uiso 1 1 calc R U . . .
N4 N 0.50134(12) 0.78739(13) 0.2785(2) 0.0415(4) Uani 1 1 d . . . . .
H4 H 0.515859 0.698181 0.272567 0.050 Uiso 1 1 calc R U . . .
N5 N 0.37589(14) 0.83521(15) 0.3307(3) 0.0512(4) Uani 1 1 d D . . . .
H5A H 0.390(2) 0.875(2) 0.4432(16) 0.078(7) Uiso 1 1 d D . . . .
H5B H 0.349(2) 0.894(2) 0.241(2) 0.101(9) Uiso 1 1 d D . . . .
loop_
_atom_site_aniso_label
_atom_site_aniso_U_11
_atom_site_aniso_U_22
_atom_site_aniso_U_33
_atom_site_aniso_U_23
_atom_site_aniso_U_13
_atom_site_aniso_U_12
O1 0.0481(7) 0.0277(6) 0.1026(10) -0.0008(6) 0.0296(7) 0.0018(5)
C1 0.0444(9) 0.0350(8) 0.0545(10) -0.0011(7) 0.0164(7) 0.0083(7)
C2 0.0387(9) 0.0473(9) 0.0488(9) -0.0010(7) 0.0131(7) 0.0091(7)
C3 0.0349(8) 0.0378(8) 0.0393(8) -0.0025(6) 0.0074(6) -0.0028(6)
C4 0.0328(8) 0.0317(8) 0.0357(8) -0.0019(6) 0.0055(6) -0.0012(6)
C5 0.0351(8) 0.0304(8) 0.0471(9) -0.0008(6) 0.0087(6) -0.0002(6)
N1 0.0382(7) 0.0329(7) 0.0474(8) -0.0008(5) 0.0113(6) 0.0018(5)
N2 0.0326(7) 0.0462(8) 0.0504(8) 0.0008(6) 0.0124(6) -0.0006(5)
N3 0.0428(8) 0.0355(7) 0.0793(10) -0.0016(7) 0.0247(7) -0.0078(6)
N4 0.0329(7) 0.0290(6) 0.0646(9) -0.0023(6) 0.0172(6) 0.0011(5)
N5 0.0343(8) 0.0475(9) 0.0743(11) -0.0010(8) 0.0203(7) 0.0045(6)
loop_
_atom_type_symbol
_atom_type_description
_atom_type_scat_dispersion_real
_atom_type_scat_dispersion_imag
_atom_type_scat_source
C C 0.0033 0.0016 'International Tables Vol C Tables 4.2.6.8 and 6.1.1.4'
H H 0.0000 0.0000 'International Tables Vol C Tables 4.2.6.8 and 6.1.1.4'
N N 0.0061 0.0033 'International Tables Vol C Tables 4.2.6.8 and 6.1.1.4'
O O 0.0106 0.0060 'International Tables Vol C Tables 4.2.6.8 and 6.1.1.4'
loop_
_geom_angle_atom_site_label_1
_geom_angle_atom_site_label_2
_geom_angle_atom_site_label_3
_geom_angle
_geom_angle_site_symmetry_1
_geom_angle_site_symmetry_3
N1 C1 C2 120.82(15) . .
N1 C1 H1 119.6 . .
C2 C1 H1 119.6 . .
N2 C2 C1 123.03(14) . .
N2 C2 H2 118.5 . .
C1 C2 H2 118.5 . .
N3 C3 N2 116.62(13) . .
N3 C3 C4 124.01(13) . .
N2 C3 C4 119.37(14) . .
N1 C4 C3 121.37(13) . .
N1 C4 C5 117.03(12) . .
C3 C4 C5 121.61(13) . .
O1 C5 N4 122.50(14) . .
O1 C5 C4 121.46(13) . .
N4 C5 C4 116.04(13) . .
C4 N1 C1 117.92(13) . .
C2 N2 C3 117.45(13) . .
C3 N3 H3A 120.0 . .
C3 N3 H3B 120.0 . .
H3A N3 H3B 120.0 . .
C5 N4 N5 121.94(13) . .
C5 N4 H4 119.0 . .
N5 N4 H4 119.0 . .
N4 N5 H5A 106.4(15) . .
N4 N5 H5B 104.4(17) . .
H5A N5 H5B 114.1(15) . .
loop_
_geom_bond_atom_site_label_1
_geom_bond_atom_site_label_2
_geom_bond_distance
_geom_bond_site_symmetry_2
O1 C5 1.2317(18) .
C1 N1 1.3315(19) .
C1 C2 1.374(2) .
C1 H1 0.9300 .
C2 N2 1.320(2) .
C2 H2 0.9300 .
C3 N3 1.336(2) .
C3 N2 1.3496(19) .
C3 C4 1.422(2) .
C4 N1 1.3275(19) .
C4 C5 1.489(2) .
C5 N4 1.3195(19) .
N3 H3A 0.8600 .
N3 H3B 0.8600 .
N4 N5 1.4200(18) .
N4 H4 0.8600 .
N5 H5A 0.883(9) .
N5 H5B 0.874(9) .
loop_
_geom_hbond_atom_site_label_D
_geom_hbond_atom_site_label_H
_geom_hbond_atom_site_label_A
_geom_hbond_distance_DH
_geom_hbond_distance_HA
_geom_hbond_distance_DA
_geom_hbond_angle_DHA
_geom_hbond_site_symmetry_A
_geom_hbond_publ_flag
N4 H4 O1 0.86 2.10 2.8194(17) 141.5 2_645 yes
N3 H3A N2 0.86 2.22 3.0684(18) 169.7 3_775 yes
N3 H3B O1 0.86 2.08 2.7104(17) 129.1 . yes
N5 H5A O1 0.883(9) 2.447(10) 3.329(2) 176.0(18) 3_676 yes
loop_
_geom_torsion_atom_site_label_1
_geom_torsion_atom_site_label_2
_geom_torsion_atom_site_label_3
_geom_torsion_atom_site_label_4
_geom_torsion
_geom_torsion_site_symmetry_1
_geom_torsion_site_symmetry_2
_geom_torsion_site_symmetry_3
_geom_torsion_site_symmetry_4
N1 C1 C2 N2 -0.9(3) . . . .
N3 C3 C4 N1 177.69(14) . . . .
N2 C3 C4 N1 -2.1(2) . . . .
N3 C3 C4 C5 -2.3(2) . . . .
N2 C3 C4 C5 177.90(13) . . . .
N1 C4 C5 O1 174.27(15) . . . .
C3 C4 C5 O1 -5.7(2) . . . .
N1 C4 C5 N4 -4.8(2) . . . .
C3 C4 C5 N4 175.18(13) . . . .
C3 C4 N1 C1 0.8(2) . . . .
C5 C4 N1 C1 -179.19(13) . . . .
C2 C1 N1 C4 0.7(2) . . . .
C1 C2 N2 C3 -0.4(2) . . . .
N3 C3 N2 C2 -178.01(15) . . . .
C4 C3 N2 C2 1.8(2) . . . .
O1 C5 N4 N5 2.7(2) . . . .
C4 C5 N4 N5 -178.24(14) . . . .
