#------------------------------------------------------------------------------
#$Date: 2022-05-19 12:33:18 +0300 (Thu, 19 May 2022) $
#$Revision: 275553 $
#$URL: file:///home/coder/svn-repositories/cod/cif/8/10/53/8105312.cif $
#------------------------------------------------------------------------------
#
# This file is available in the Crystallography Open Database (COD),
# http://www.crystallography.net/
#
# All data on this site have been placed in the public domain by the
# contributors.
#
data_8105312
loop_
_publ_author_name
'Wu-Hua, Chen'
'Ji, Zhou'
'Yu-Fan, Wang'
_publ_section_title
;
 Redetermination of the crystal structure of
 catena-poly[aqua-(1,10-phenanthroline-\k2
 N,N&#x2032;)-(\m2-tetraoxidomolybdato(VI)-\k2 O:O&#x2032;)manganese(II)
 monohydrate, C12H12N2O6MoMn
;
_journal_issue                   4
_journal_name_full
'Zeitschrift f\"ur Kristallographie - New Crystal Structures'
_journal_page_first              865
_journal_page_last               866
_journal_paper_doi               10.1515/ncrs-2020-0065
_journal_volume                  235
_journal_year                    2020
_chemical_formula_moiety         'C12 H10 Mn Mo N2 O5, H2 O'
_chemical_formula_sum            'C12 H12 Mn Mo N2 O6'
_chemical_formula_weight         431.12
_chemical_name_common
;
catena-tris(2-oxo)-1'10-phenanthroline-hydrate-molybdenum(vi)-
manganese(ii) solvate hydrate
;
_space_group_crystal_system      triclinic
_space_group_IT_number           2
_space_group_name_Hall           '-P 1'
_space_group_name_H-M_alt        'P -1'
_atom_sites_solution_hydrogens   mixed
_cell_angle_alpha                73.233(6)
_cell_angle_beta                 83.372(4)
_cell_angle_gamma                77.340(4)
_cell_formula_units_Z            2
_cell_length_a                   7.0427(3)
_cell_length_b                   10.4459(7)
_cell_length_c                   10.5778(6)
_cell_measurement_reflns_used    3263
_cell_measurement_temperature    293(2)
_cell_measurement_theta_max      28.5360
_cell_measurement_theta_min      3.9900
_cell_volume                     725.85(7)
_computing_cell_refinement
'CrysAlisPro 1.171.38.41k (Rigaku OD, 2015)[1]'
_computing_data_collection
'CrysAlisPro 1.171.38.41k (Rigaku OD, 2015)[1]'
_computing_data_reduction
'CrysAlisPro 1.171.38.41k (Rigaku OD, 2015)[1]'
_computing_molecular_graphics    'Olex2 (Dolomanov et al., 2009)[2]'
_computing_publication_material  'Olex2 (Dolomanov et al., 2009)[2]'
_computing_structure_refinement  'ShelXL (Sheldrick, 2015)[3]'
_computing_structure_solution    'ShelXT (Sheldrick, 2015)[4]'
_diffrn_ambient_temperature      293(2)
_diffrn_detector                 'CCD plate'
_diffrn_detector_area_resol_mean 8.1151
_diffrn_detector_type            EosS2
_diffrn_measured_fraction_theta_full 0.998
_diffrn_measured_fraction_theta_max 0.845
_diffrn_measurement_details
;
List of Runs (angles in degrees, time in seconds):

  # Type    Start    End  Width  t~exp~   \w     \q     \k     \f   Frames
--------------------------------------------------------------------------
  1  \w    -34.00  44.00   1.00    4.53    --  -17.52  57.00 -90.00   78
  2  \w     56.00  83.00   1.00    4.53    --   15.88  77.00 -60.00   27
  3  \w     -1.00  83.00   1.00    4.53    --   15.88  57.00-180.00   84
  4  \w     -4.00  32.00   1.00    4.53    --   15.88  77.00 -60.00   36
  5  \w     -3.00  43.00   1.00    4.53    --   15.88 -77.00  60.00   46
  6  \w     37.00  65.00   1.00    4.53    --   15.88-118.00 -48.00   28
  7  \w    -44.00  32.00   1.00    4.53    --   15.88 -77.00  30.00   76
;
_diffrn_measurement_device       'four-circle diffractometer'
_diffrn_measurement_device_type  'New Xcalibur, EosS2'
_diffrn_measurement_method       '\w scans'
_diffrn_orient_matrix_type
'CrysAlisPro convention (1999,Acta A55,543-557)'
_diffrn_orient_matrix_UB_11      -0.0012768000
_diffrn_orient_matrix_UB_12      0.0093857000
_diffrn_orient_matrix_UB_13      -0.0690579000
_diffrn_orient_matrix_UB_21      0.0598966000
_diffrn_orient_matrix_UB_22      -0.0654321000
_diffrn_orient_matrix_UB_23      0.0064621000
_diffrn_orient_matrix_UB_31      -0.0842573000
_diffrn_orient_matrix_UB_32      -0.0293172000
_diffrn_orient_matrix_UB_33      0.0104500000
_diffrn_radiation_monochromator  graphite
_diffrn_radiation_probe          x-ray
_diffrn_radiation_type           MoK\a
_diffrn_radiation_wavelength     0.71073
_diffrn_reflns_av_R_equivalents  0.0322
_diffrn_reflns_av_unetI/netI     0.0569
_diffrn_reflns_Laue_measured_fraction_full 0.998
_diffrn_reflns_Laue_measured_fraction_max 0.845
_diffrn_reflns_limit_h_max       9
_diffrn_reflns_limit_h_min       -9
_diffrn_reflns_limit_k_max       13
_diffrn_reflns_limit_k_min       -13
_diffrn_reflns_limit_l_max       12
_diffrn_reflns_limit_l_min       -13
_diffrn_reflns_number            6071
_diffrn_reflns_point_group_measured_fraction_full 0.998
_diffrn_reflns_point_group_measured_fraction_max 0.845
_diffrn_reflns_theta_full        26.000
_diffrn_reflns_theta_max         29.219
_diffrn_reflns_theta_min         3.263
_diffrn_source                   'fine-focus sealed X-ray tube'
_diffrn_source_type              'Enhance (Mo) X-ray Source'
_exptl_absorpt_coefficient_mu    1.763
_exptl_absorpt_correction_T_max  0.809
_exptl_absorpt_correction_T_min  0.760
_exptl_absorpt_correction_type   multi-scan
_exptl_absorpt_process_details
;
CrysAlisPro 1.171.38.41k (Rigaku Oxford Diffraction, 2015)
Empirical absorption correction using spherical harmonics,
 implemented in SCALE3 ABSPACK scaling algorithm.
;
_exptl_crystal_colour            'translucent light yellow'
_exptl_crystal_density_diffrn    1.973
_exptl_crystal_description       irregular
_exptl_crystal_F_000             426
_exptl_crystal_size_max          0.22
_exptl_crystal_size_mid          0.13
_exptl_crystal_size_min          0.12
_refine_diff_density_max         1.326
_refine_diff_density_min         -1.478
_refine_diff_density_rms         0.124
_refine_ls_extinction_coef       .
_refine_ls_extinction_method     none
_refine_ls_goodness_of_fit_ref   1.069
_refine_ls_hydrogen_treatment    mixed
_refine_ls_matrix_type           full
_refine_ls_number_parameters     207
_refine_ls_number_reflns         3334
_refine_ls_number_restraints     26
_refine_ls_restrained_S_all      1.177
_refine_ls_R_factor_all          0.0441
_refine_ls_R_factor_gt           0.0386
_refine_ls_shift/su_max          0.001
_refine_ls_shift/su_mean         0.000
_refine_ls_structure_factor_coef Fsqd
_refine_ls_weighting_details
'w=1/[\s^2^(Fo^2^)+(0.0400P)^2^] where P=(Fo^2^+2Fc^2^)/3'
_refine_ls_weighting_scheme      calc
_refine_ls_wR_factor_gt          0.0882
_refine_ls_wR_factor_ref         0.0916
_reflns_Friedel_coverage         0.000
_reflns_Friedel_fraction_full    .
_reflns_Friedel_fraction_max     .
_reflns_number_gt                2954
_reflns_number_total             3334
_reflns_threshold_expression     'I > 2\s(I)'
_cod_data_source_file            suppl_ncrs-2020-0065_suppl.cif
_cod_data_source_block           zj0415-q5
_cod_database_code               8105312
_chemical_oxdiff_formula         'C H N O Mo Mn Co Ni'
_shelx_space_group_comment
;
The symmetry employed for this shelxl refinement is uniquely defined
by the following loop, which should always be used as a source of
symmetry information in preference to the above space-group names.
They are only intended as comments.
;
_reflns_odcompleteness_completeness 99.73
_reflns_odcompleteness_iscentric 1
_reflns_odcompleteness_theta     26.32
_olex2_refinement_description
;
1. Fixed Uiso
 At 1.2 times of:
  All C(H) groups
 At 1.5 times of:
  All O(H) groups, All O(H,H) groups
2. Restrained distances
 O5-H5B
 0.82 with sigma of 0.002
 O6-H6A
 0.82 with sigma of 0.002
3. Uiso/Uaniso restraints and constraints
Mo1 \\sim O1 \\sim O2 \\sim O3 \\sim O4: within 2A with sigma of 0.005 and
sigma for terminal atoms of 0.01
O4 \\sim Mn1 \\sim Mo1: within 2A with sigma of 0.001 and sigma for terminal
atoms of 0.002
4.a Free rotating group:
 O6(H6A,H6B)
4.b Rotating group:
 O5(H5A)
4.c Aromatic/amide H refined with riding coordinates:
 C10(H10), C1(H1), C8(H8), C2(H2), C3(H3), C9(H9), C5(H5), C6(H6)
;
_shelx_res_file
;
    zj0415-q5.res created by SHELXL-2014/7

TITL zj0415-q5_a.res in P-1
REM Old TITL ZJ0415-Q5 in P1 #1
REM SHELXT solution in P-1
REM R1 0.066, Rweak 0.008, Alpha 0.064, Orientation as input
REM Formula found by SHELXT: C12 N2 O6 Mn Mo
CELL 0.71073 7.042696 10.445881 10.577814 73.2331 83.3715 77.3403
ZERR 2 0.000269 0.000674 0.000649 0.0056 0.004 0.0043
LATT 1
SFAC C H N O Mn Mo
UNIT 24 24 4 12 2 2
DFIX 0.82 0.002 O5 H5b
DFIX 0.82 0.002 O6 H6a
SIMU 0.005 0.01 2 Mo1 O1 O2 O3 O4
SIMU 0.001 0.002 2 O4 Mn1 Mo1

L.S. 30
PLAN  20
BOND $H
LIST 6
MORE -1
CONF
fmap 2
acta 52
REM <olex2.extras>
REM <HklSrc "%.\\ZJ0515-Q7(0415-Q5).hkl">
REM </olex2.extras>

WGHT    0.040000
FVAR       0.44299
MO1   6    0.711033    0.670037   -0.089136    11.00000    0.01520    0.01554 =
         0.01504   -0.00251   -0.00203   -0.00344
MN1   5    0.773070    0.343939    0.196431    11.00000    0.01597    0.01792 =
         0.01478   -0.00278   -0.00174   -0.00413
O2    4    0.918279    0.660971   -0.197784    11.00000    0.01491    0.03702 =
         0.02410   -0.01336    0.00327   -0.00643
O1    4    0.509094    0.692483   -0.180415    11.00000    0.02093    0.03655 =
         0.02769   -0.00093   -0.00729   -0.00963
O3    4    0.696545    0.812954   -0.028923    11.00000    0.04109    0.02684 =
         0.03832   -0.01860    0.00190   -0.00764
O4    4    0.728692    0.521532    0.041697    11.00000    0.03215    0.02321 =
         0.02152    0.00403   -0.00438   -0.00578
O5    4    0.882309    0.187293    0.086427    11.00000    0.02835    0.04831 =
         0.07295   -0.04091    0.01016   -0.01446
AFIX   7
H5A   2    1.007139    0.174290    0.077249    11.00000   -1.50000
AFIX   0
N2    3    0.741596    0.469091    0.346053    11.00000    0.02394    0.02067 =
         0.01911   -0.00539    0.00057   -0.00355
N1    3    0.759159    0.197136    0.402259    11.00000    0.02218    0.01811 =
         0.02119   -0.00167   -0.00314   -0.00380
AFIX   6
O6    4    0.668947   -0.006472    0.120901    11.00000    0.04374    0.04224 =
         0.07506   -0.03427   -0.00721   -0.00620
H6A   2    0.575416    0.054978    0.084842    11.00000   -1.50000
H6B   2    0.680373   -0.075639    0.091556    11.00000   -1.50000
AFIX   0
C11   1    0.754313    0.396614    0.473836    11.00000    0.01741    0.02158 =
         0.01927   -0.00489   -0.00082   -0.00155
C12   1    0.761841    0.250870    0.504848    11.00000    0.01713    0.02497 =
         0.01727   -0.00241   -0.00107   -0.00340
C10   1    0.732545    0.602665    0.317587    11.00000    0.03126    0.02116 =
         0.02623   -0.00655   -0.00165   -0.00382
AFIX  43
H10   2    0.724885    0.653735    0.229681    11.00000   -1.20000
AFIX   0
C7    1    0.756308    0.455032    0.578155    11.00000    0.02663    0.03097 =
         0.02391   -0.00795   -0.00166   -0.00527
C1    1    0.750631    0.065529    0.430309    11.00000    0.04221    0.02674 =
         0.02918   -0.00523   -0.00765   -0.00993
AFIX  43
H1    2    0.745025    0.028711    0.360893    11.00000   -1.20000
AFIX   0
C8    1    0.745247    0.596997    0.543533    11.00000    0.03999    0.03497 =
         0.03137   -0.01712   -0.00047   -0.00662
AFIX  43
H8    2    0.745600    0.640636    0.608685    11.00000   -1.20000
AFIX   0
C4    1    0.766346    0.172842    0.636590    11.00000    0.02938    0.03091 =
         0.02225   -0.00169   -0.00322   -0.00397
C2    1    0.749740   -0.019416    0.559116    11.00000    0.05081    0.02780 =
         0.03314    0.00237   -0.00282   -0.01547
AFIX  43
H2    2    0.741424   -0.110403    0.575035    11.00000   -1.20000
AFIX   0
C3    1    0.761294    0.033361    0.661482    11.00000    0.04547    0.03000 =
         0.02566    0.01001   -0.00515   -0.00897
AFIX  43
H3    2    0.765834   -0.022673    0.747637    11.00000   -1.20000
AFIX   0
C9    1    0.734062    0.669987    0.414714    11.00000    0.04453    0.02376 =
         0.04028   -0.01372    0.00269   -0.00823
AFIX  43
H9    2    0.727463    0.763725    0.390995    11.00000   -1.20000
AFIX   0
C5    1    0.769837    0.235464    0.739960    11.00000    0.04667    0.04516 =
         0.01992   -0.00216   -0.00230   -0.00747
AFIX  43
H5    2    0.774265    0.182902    0.827450    11.00000   -1.20000
AFIX   0
C6    1    0.766701    0.371601    0.710708    11.00000    0.04888    0.04763 =
         0.02343   -0.01455   -0.00138   -0.00871
AFIX  43
H6    2    0.771439    0.410732    0.778605    11.00000   -1.20000
AFIX   0
H5B   2    0.840723    0.116447    0.103266    11.00000    0.04754
HKLF 4

REM  zj0515-q7(0415-q5)_a.res in P-1
REM R1 =  0.0386 for    2954 Fo > 4sig(Fo)  and  0.0441 for all    3334 data
REM    207 parameters refined using     26 restraints

END

WGHT      0.0414      0.1527

REM Highest difference peak  1.326,  deepest hole -1.478,  1-sigma level  0.124
Q1    1   0.3795  0.6767 -0.0944  11.00000  0.05    1.33
Q2    1   1.0368  0.6671 -0.0871  11.00000  0.05    1.28
Q3    1   0.6536  0.5547  0.0534  11.00000  0.05    0.83
Q4    1   0.6064  0.6626 -0.1967  11.00000  0.05    0.77
Q5    1   0.5698  0.6416 -0.1935  11.00000  0.05    0.75
Q6    1   0.7969  0.5001 -0.0017  11.00000  0.05    0.74
Q7    1   0.7220  0.1779  0.0216  11.00000  0.05    0.52
Q8    1   0.5887  0.7832 -0.0013  11.00000  0.05    0.52
Q9    1   0.9119  0.7034 -0.1984  11.00000  0.05    0.45
Q10   1   0.9703  0.5234  0.5664  11.00000  0.05    0.44
Q11   1   0.8714  0.6631 -0.2090  11.00000  0.05    0.42
Q12   1   0.5421  0.3986  0.4765  11.00000  0.05    0.40
Q13   1   0.4868  0.7250 -0.2205  11.00000  0.05    0.39
Q14   1   0.5763  0.8274 -0.0794  11.00000  0.05    0.38
Q15   1   0.5831  0.4331  0.5420  11.00000  0.05    0.37
Q16   1   0.5376 -0.2018  0.5939  11.00000  0.05    0.37
Q17   1   0.9026  0.4607  0.8348  11.00000  0.05    0.36
Q18   1   0.8405 -0.1954  0.6031  11.00000  0.05    0.36
Q19   1   0.9650  0.1647  0.0379  11.00000  0.05    0.35
Q20   1   0.6116 -0.0073  0.2807  11.00000  0.05    0.35
;
_shelx_hkl_file
;
  -9  -3   0   15.30    5.18
  -9  -3   1   48.44    9.04
  -9  -2   0   14.01    4.59
  -9  -2   1    4.80    3.04
  -9  -2   2   86.45   12.56
  -9  -1  -1   13.13    4.57
  -9  -1   0  134.31   14.97
  -9  -1   1   94.42   12.91
  -9  -1   2   15.48    5.43
  -9   0  -2   -0.83    1.71
  -9   0  -1    3.14    2.88
  -9   0   0    4.99    2.66
  -9   0   1   84.00   12.53
  -9   1  -2   27.87    7.17
  -9   1  -1   10.28    4.42
  -9   1   0   34.17    8.02
  -8  -8  -8   63.76   10.62
  -8  -8  -7   85.46   11.77
  -8  -7  -8   10.89    4.35
  -8  -7  -7   18.80    5.38
  -8  -7  -6   87.29   11.20
  -8  -5  -6   86.48   12.25
  -8  -5  -5   53.33    9.75
  -8  -5  -4   40.91    8.54
  -8  -5  -3   16.43    5.29
  -8  -5  -2   21.76    6.19
  -8  -5  -1   78.01   11.61
  -8  -5   0  238.94   20.67
  -8  -5   1   24.43    6.60
  -8  -5   2    3.90    3.28
  -8  -4  -8   21.37    6.14
  -8  -4  -7   11.00    4.62
  -8  -4  -6   29.79    7.16
  -8  -4  -5   63.68   10.34
  -8  -4  -4   88.82   12.27
  -8  -4  -3  173.85   17.31
  -8  -4  -2   62.47   10.37
  -8  -4  -1    3.88    2.44
  -8  -4  -1    6.70    3.26
  -8  -4   0   88.74   12.32
  -8  -4   1  151.53   16.16
  -8  -4   2   33.99    7.74
  -8  -4   3    6.78    3.33
  -8  -4   4    2.70    2.30
  -8  -4   5    0.87    2.14
  -8  -3  -8  135.93   15.16
  -8  -3  -7   21.61    5.93
  -8  -3  -6   18.10    5.45
  -8  -3  -5    0.39    2.05
  -8  -3  -4    1.05    1.90
  -8  -3  -3  103.05   13.03
  -8  -3  -2  172.10   17.15
  -8  -3  -2  202.36   15.22
  -8  -3  -1  131.69   12.77
  -8  -3  -1  145.98   15.54
  -8  -3   0   14.25    4.16
  -8  -3   0   11.12    4.30
  -8  -3   1   29.87    6.56
  -8  -3   1   39.31    7.96
  -8  -3   2   93.70   12.61
  -8  -3   2   90.25   12.04
  -8  -3   3   42.32    8.44
  -8  -3   4   55.40    9.84
  -8  -3   5   38.73    8.29
  -8  -2  -8  132.45   15.14
  -8  -2  -7   10.04    4.20
  -8  -2  -6   26.87    6.71
  -8  -2  -5   48.93    8.96
  -8  -2  -4   29.25    7.04
  -8  -2  -3    2.45    1.76
  -8  -2  -3    5.76    2.61
  -8  -2  -2   30.81    7.37
  -8  -2  -2   43.53    7.22
  -8  -2  -1  181.68   17.75
  -8  -2  -1  173.94   14.99
  -8  -2   0  172.48   17.21
  -8  -2   0  184.06   15.89
  -8  -2   1   27.05    6.25
  -8  -2   1   18.29    5.53
  -8  -2   2    3.84    2.88
  -8  -2   2    4.60    2.71
  -8  -2   3    6.28    3.36
  -8  -2   3    6.07    3.44
  -8  -2   4   12.45    4.49
  -8  -2   5   25.64    6.50
  -8  -2   6   94.10   12.73
  -8  -1  -8   10.67    4.33
  -8  -1  -7    2.79    2.86
  -8  -1  -6    8.94    4.04
  -8  -1  -5   26.33    6.70
  -8  -1  -4   79.04   11.78
  -8  -1  -3  100.98   10.96
  -8  -1  -3   90.68   12.43
  -8  -1  -2   39.21    8.21
  -8  -1  -2   35.82    6.76
  -8  -1  -1   -0.74    2.12
  -8  -1  -1    1.67    1.51
  -8  -1   0  210.22   19.06
  -8  -1   0  251.29   19.05
  -8  -1   1   75.74   11.38
  -8  -1   1   82.44   11.12
  -8  -1   2   59.27    9.71
  -8  -1   2   55.40    9.68
  -8  -1   3    3.13    2.65
  -8  -1   3    6.97    3.85
  -8  -1   4   16.39    5.61
  -8  -1   4    9.99    4.22
  -8  -1   5   -0.07    2.46
  -8  -1   6   11.57    4.44
  -8   0  -7   33.16    7.60
  -8   0  -6   21.40    6.07
  -8   0  -5    4.64    2.87
  -8   0  -4    0.01    2.21
  -8   0  -3  105.30   11.83
  -8   0  -2  228.79   17.78
  -8   0  -1  228.68   18.18
  -8   0   0   22.71    5.94
  -8   0   1   -0.45    1.63
  -8   0   2  112.01   13.45
  -8   0   3   42.47    8.67
  -8   0   3   37.19    8.00
  -8   0   4   15.86    5.28
  -8   0   4    9.88    4.35
  -8   0   5   54.54    9.78
  -8   0   6   16.20    5.34
  -8   1  -7   30.90    7.19
  -8   1  -4  106.84   12.55
  -8   1  -3    7.58    3.49
  -8   1  -2   44.93    8.31
  -8   1  -1  166.97   15.86
  -8   1   0  174.22   16.50
  -8   1   1   30.86    7.24
  -8   1   2    6.18    3.34
  -8   1   3    5.40    3.36
  -8   1   4    3.55    3.26
  -8   2  -5   31.28    7.27
  -8   2  -4   73.09   10.96
  -8   2  -3  221.56   18.97
  -8   2  -2   61.96   10.11
  -8   2  -1    3.42    2.71
  -8   2   0  105.29   13.19
  -8   2   1  116.51   14.12
  -8   2   2   36.73    8.10
  -8   2   3    6.99    4.10
  -8   3  -5   23.59    6.59
  -8   3  -4    0.61    2.27
  -8   3  -3   70.45   11.05
  -8   3  -2  220.70   19.84
  -8   3  -1  119.60   14.50
  -8   3   0    5.44    3.32
  -8   3   1   27.01    7.22
  -8   3   2   35.65    8.07
  -7 -11  -6    0.27    2.27
  -7 -11  -5   72.83   11.39
  -7 -11  -4  248.16   21.38
  -7 -10  -8    4.41    3.05
  -7 -10  -7   75.96   10.98
  -7 -10  -6   78.49   11.07
  -7 -10  -5    8.97    4.06
  -7 -10  -4   67.88   10.41
  -7 -10  -3  152.82   16.41
  -7  -9  -8    2.70    2.58
  -7  -9  -7    7.35    3.73
  -7  -9  -7    3.00    2.94
  -7  -9  -6  199.06   18.09
  -7  -9  -6  196.49   16.83
  -7  -9  -5  100.18   11.85
  -7  -9  -4   65.04    9.73
  -7  -9  -3   45.97    8.55
  -7  -8  -9   22.79    6.48
  -7  -8  -8   91.19   12.22
  -7  -8  -7   71.72   10.58
  -7  -8  -6    4.07    2.75
  -7  -8  -6    6.92    3.77
  -7  -8  -5  212.13   16.62
  -7  -8  -4  226.51   17.50
  -7  -8  -3  172.10   15.75
  -7  -7 -10   19.58    6.00
  -7  -7  -9    1.65    1.34
  -7  -7  -8   68.58   10.09
  -7  -7  -7  136.87   14.06
  -7  -7  -6  191.65   14.48
  -7  -7  -6  174.40   15.65
  -7  -7  -5   18.72    4.93
  -7  -7  -5   28.24    5.59
  -7  -7  -4   77.45    9.76
  -7  -6 -10    3.11    2.63
  -7  -6  -9   23.92    6.17
  -7  -6  -8    1.64    1.84
  -7  -6  -7   19.95    5.18
  -7  -6  -6  269.27   18.75
  -7  -6  -5  419.37   21.14
  -7  -6  -5  370.25   21.92
  -7  -6  -4   74.36    8.89
  -7  -5 -11   30.35    7.51
  -7  -5 -10   12.72    4.66
  -7  -5  -9   16.91    4.77
  -7  -5  -8  111.42   12.05
  -7  -5  -7   89.60   10.34
  -7  -5  -6    0.65    2.31
  -7  -5  -6    1.99    2.08
  -7  -5  -5  187.54   16.84
  -7  -5  -5  215.23   15.47
  -7  -5  -4  432.75   26.15
  -7  -5  -3  106.43   12.71
  -7  -5  -2   -0.74    1.53
  -7  -5  -1    2.03    2.24
  -7  -5   0   17.46    5.17
  -7  -5   1   -0.63    1.62
  -7  -5   2  138.16   14.53
  -7  -4  -9   -1.61    2.50
  -7  -4  -8   37.79    6.79
  -7  -4  -8   29.85    6.53
  -7  -4  -7  181.46   16.44
  -7  -4  -7  206.54   15.24
  -7  -4  -6  165.40   13.20
  -7  -4  -6  151.63   14.97
  -7  -4  -5   45.66    6.66
  -7  -4  -5   42.20    7.86
  -7  -4  -4  209.27   17.63
  -7  -4  -3  155.29   11.18
  -7  -4  -3  174.64   15.89
  -7  -4  -2   50.42    8.56
  -7  -4  -2   51.75    6.70
  -7  -4  -1    2.61    2.48
  -7  -4  -1    3.65    2.23
  -7  -4   0    4.52    2.69
  -7  -4   1   75.05   10.45
  -7  -4   2   -0.60    1.98
  -7  -4   3  152.35   15.06
  -7  -4   4  313.89   22.03
  -7  -3  -9   26.02    6.35
  -7  -3  -8   32.35    6.81
  -7  -3  -7   21.54    5.33
  -7  -3  -6  330.53   18.04
  -7  -3  -6  299.17   21.05
  -7  -3  -5  333.63   22.18
  -7  -3  -5  335.55   17.66
  -7  -3  -4   18.61    3.82
  -7  -3  -4   15.96    3.54
  -7  -3  -4   18.28    5.11
  -7  -3  -3   56.47    8.82
  -7  -3  -3   49.19    6.60
  -7  -3  -2  121.35   10.66
  -7  -3  -2  132.32   13.75
  -7  -3  -1   27.64    6.16
  -7  -3  -1   31.84    5.80
  -7  -3   0   10.50    3.89
  -7  -3   0    9.35    3.31
  -7  -3   1   46.08    7.47
  -7  -3   1   49.44    8.40
  -7  -3   2  156.78   14.73
  -7  -3   2  158.39   15.09
  -7  -3   3    7.24    3.16
  -7  -3   4  144.64   14.54
  -7  -3   5  286.22   20.88
  -7  -3   6  145.95   14.60
  -7  -2  -8   86.86   11.00
  -7  -2  -7  191.24   16.52
  -7  -2  -6    2.68    2.77
  -7  -2  -5  230.22   18.25
  -7  -2  -4  408.67   19.75
  -7  -2  -4  379.67   23.94
  -7  -2  -3  106.03   12.28
  -7  -2  -3  111.49   10.19
  -7  -2  -2    4.75    2.56
  -7  -2  -2   -1.70    2.71
  -7  -2  -1   15.58    4.19
  -7  -2  -1   11.49    4.08
  -7  -2   0    0.98    2.08
  -7  -2   0   -0.69    1.39
  -7  -2   1   16.96    5.12
  -7  -2   1   12.47    3.95
  -7  -2   2  242.03   18.80
  -7  -2   2  247.84   18.33
  -7  -2   3  436.12   26.25
  -7  -2   3  438.54   25.95
  -7  -2   4   22.24    5.52
  -7  -2   4   32.22    7.30
  -7  -2   5    9.52    3.56
  -7  -2   6  229.60   18.49
  -7  -1  -8   10.28    4.14
  -7  -1  -7  355.84   23.24
  -7  -1  -6  255.74   19.40
  -7  -1  -5    4.80    3.52
  -7  -1  -5    0.49    1.42
  -7  -1  -4   97.40    9.83
  -7  -1  -4   94.50   11.58
  -7  -1  -3  275.64   17.11
  -7  -1  -3  263.57   19.52
  -7  -1  -2  130.24   11.71
  -7  -1  -2  111.91   12.47
  -7  -1  -1    2.93    2.71
  -7  -1   0  150.69   13.42
  -7  -1   0  153.69   14.72
  -7  -1   1   61.27    9.29
  -7  -1   1   68.09    9.18
  -7  -1   2    2.75    2.45
  -7  -1   2   -0.82    2.36
  -7  -1   3  158.56   15.18
  -7  -1   3  154.09   15.09
  -7  -1   4  360.03   23.46
  -7  -1   4  398.24   25.61
  -7  -1   5  191.04   16.84
  -7  -1   5  191.90   18.35
  -7  -1   6    4.54    2.54
  -7   0  -8   10.68    4.22
  -7   0  -7   25.79    6.04
  -7   0  -6  307.70   21.65
  -7   0  -6  377.70   21.11
  -7   0  -5  342.50   20.22
  -7   0  -4   79.72    9.47
  -7   0  -3   22.62    5.04
  -7   0  -2   91.76   10.25
  -7   0  -1   28.02    5.72
  -7   0   0   25.20    5.90
  -7   0   1  202.33   16.48
  -7   0   2  244.79   18.68
  -7   0   3   76.23   10.63
  -7   0   4   80.56   11.38
  -7   0   5  265.54   21.49
  -7   0   5  242.82   19.22
  -7   0   6   75.98   11.96
  -7   0   6   80.55   10.86
  -7   0   7    3.10    2.46
  -7   1  -6   -0.15    1.78
  -7   1  -5  150.48   14.03
  -7   1  -4  477.71   25.52
  -7   1  -3   57.41    8.52
  -7   1  -2    4.29    2.87
  -7   1  -1    3.64    2.93
  -7   1   0   23.33    5.51
  -7   1   1   30.40    6.32
  -7   1   2  160.48   15.28
  -7   1   3  363.12   24.09
  -7   1   4  120.87   14.12
  -7   1   5   41.99    8.36
  -7   1   6   86.85   12.73
  -7   1   7   34.26    7.20
  -7   2  -7  161.26   15.33
  -7   2  -6  198.96   17.03
  -7   2  -5   25.66    6.02
  -7   2  -4  103.85   12.08
  -7   2  -3   73.49    9.92
  -7   2  -2   33.09    6.72
  -7   2  -1   16.20    4.62
  -7   2   0   22.50    5.67
  -7   2   1  103.25   12.29
  -7   2   2    0.26    1.70
  -7   2   3  118.97   13.80
  -7   2   4  256.68   21.04
  -7   2   5   81.37   12.02
  -7   2   6    0.43    2.08
  -7   3  -7   15.00    4.86
  -7   3  -6  183.85   17.16
  -7   3  -5  200.16   17.72
  -7   3  -4   49.60    8.72
  -7   3  -3   25.56    6.42
  -7   3  -2   22.56    6.09
  -7   3  -1    0.29    2.41
  -7   3   0   18.50    5.38
  -7   3   1   51.99    9.01
  -7   3   2  151.91   15.57
  -7   3   3    8.23    4.10
  -7   3   4  138.41   15.79
  -7   3   5  140.71   16.07
  -7   4  -6   -0.34    2.56
  -7   4  -5  109.28   13.72
  -7   4  -4  160.66   16.51
  -7   4  -3   38.43    8.07
  -7   4  -2   -0.86    1.79
  -7   4  -1    9.85    4.03
  -7   4   0    4.07    2.62
  -7   4   1    2.32    2.41
  -7   4   2  194.01   18.32
  -7   4   3  243.07   20.72
  -7   4   4   21.96    6.80
  -7   4   5   14.53    5.45
  -7   5  -3   69.30   11.19
  -7   5  -2   26.11    7.19
  -7   5  -1   28.89    7.12
  -7   5   0   39.24    8.45
  -7   5   1   89.46   12.87
  -7   5   2    7.36    3.85
  -7   5   3  102.03   13.72
  -6 -11  -8  173.75   17.35
  -6 -11  -7  118.36   14.16
  -6 -11  -6   14.13    5.06
  -6 -11  -6   14.04    5.52
  -6 -11  -5    2.15    1.88
  -6 -11  -4   -1.45    1.91
  -6 -11  -3    0.75    1.40
  -6 -11  -2   94.07   13.29
  -6 -10 -10  162.25   16.38
  -6 -10  -9   83.00   11.47
  -6 -10  -8    2.80    2.74
  -6 -10  -8    1.68    2.32
  -6 -10  -7   93.84   11.96
  -6 -10  -7  109.92   13.82
  -6 -10  -6   86.17   11.48
  -6 -10  -6   87.14   12.09
  -6 -10  -5   23.04    5.95
  -6 -10  -4   56.21    9.22
  -6 -10  -3   78.36   11.06
  -6 -10  -2   12.70    4.90
  -6  -9 -10   83.70   11.13
  -6  -9  -9  204.77   17.23
  -6  -9  -9  199.69   18.75
  -6  -9  -8  154.99   16.11
  -6  -9  -8  145.92   14.31
  -6  -9  -7    0.74    1.80
  -6  -9  -7    0.32    1.43
  -6  -9  -6   54.82    9.13
  -6  -9  -6   52.08    8.39
  -6  -9  -5   12.73    4.25
  -6  -9  -5   17.68    5.07
  -6  -9  -4   30.86    6.47
  -6  -9  -3   66.21    9.60
  -6  -9  -2  261.42   20.24
  -6  -8 -10   19.01    6.05
  -6  -8  -9   93.60   10.94
  -6  -8  -9  117.47   13.73
  -6  -8  -8  181.06   16.96
  -6  -8  -8  209.48   16.33
  -6  -8  -7   90.23   10.53
  -6  -8  -7  102.32   12.57
  -6  -8  -6    3.42    2.49
  -6  -8  -6    1.98    1.79
  -6  -8  -5   33.87    6.83
  -6  -8  -5   26.85    5.72
  -6  -8  -4   37.04    6.74
  -6  -8  -3   10.11    3.62
  -6  -8  -2  116.72   12.45
  -6  -7 -11   86.32   12.48
  -6  -7 -10  244.48   20.30
  -6  -7  -9   34.65    7.51
  -6  -7  -8   21.68    4.93
  -6  -7  -8   31.33    6.69
  -6  -7  -7  152.35   12.90
  -6  -7  -7  151.29   14.33
  -6  -7  -6  131.99   12.97
  -6  -7  -6  116.45   11.31
  -6  -7  -5    1.35    1.72
  -6  -7  -5    3.11    2.45
  -6  -7  -4   38.79    6.48
  -6  -7  -4   46.49    7.58
  -6  -7  -3  146.09   12.87
  -6  -7  -2   13.62    4.24
  -6  -6 -11    0.16    2.56
  -6  -6 -10  113.85   13.52
  -6  -6  -9  328.84   22.39
  -6  -6  -8   45.17    8.60
  -6  -6  -8   48.71    6.84
  -6  -6  -7    5.78    2.94
  -6  -6  -7    7.43    2.88
  -6  -6  -6   47.02    7.52
  -6  -6  -6   53.02    6.92
  -6  -6  -5   15.79    3.87
  -6  -6  -5   12.60    3.85
  -6  -6  -4    1.64    2.28
  -6  -6  -4    1.18    1.09
  -6  -6  -3  201.30   14.27
  -6  -6  -2  419.65   22.70
  -6  -5 -11  189.17   17.70
  -6  -5 -10   18.48    5.45
  -6  -5  -9  124.43   13.19
  -6  -5  -8  383.07   22.77
  -6  -5  -7  150.46   13.23
  -6  -5  -7  146.83   10.92
  -6  -5  -6   15.34    4.16
  -6  -5  -6   10.58    2.91
  -6  -5  -5    4.69    2.80
  -6  -5  -5    7.17    3.49
  -6  -5  -5    7.82    2.78
  -6  -5  -4   17.64    4.93
  -6  -5  -4   18.63    4.30
  -6  -5  -4   22.29    4.27
  -6  -5  -3    6.46    2.33
  -6  -5  -3    4.16    2.78
  -6  -5  -2  271.63   18.82
  -6  -5  -1  404.16   23.45
  -6  -5   0  367.72   22.34
  -6  -5   1   45.45    7.69
  -6  -4 -11  180.61   16.97
  -6  -4 -10  380.64   24.18
  -6  -4  -9   53.21    8.33
  -6  -4  -8   28.68    5.91
  -6  -4  -7  138.07   12.96
  -6  -4  -7  136.57   12.33
  -6  -4  -6  112.25    8.41
  -6  -4  -6   84.29   10.23
  -6  -4  -6   99.32    9.91
  -6  -4  -5   57.64    8.39
  -6  -4  -5   60.55    6.18
  -6  -4  -5   66.92    7.82
  -6  -4  -4  184.50   13.19
  -6  -4  -4  152.99    9.24
  -6  -4  -4  157.08   10.62
  -6  -4  -4  158.55   14.15
  -6  -4  -3  387.03   22.34
  -6  -4  -3  402.28   16.72
  -6  -4  -3  374.95   18.55
  -6  -4  -2   73.63    9.54
  -6  -4  -2   82.45    8.09
  -6  -4  -1  190.20   12.80
  -6  -4  -1  183.52   15.22
  -6  -4   0  541.70   27.04
  -6  -4   1  356.29   21.52
  -6  -4   2    3.44    2.18
  -6  -4   3   42.70    7.27
  -6  -4   4   26.34    5.73
  -6  -3 -12   88.53   12.48
  -6  -3 -11    1.74    2.23
  -6  -3 -10  253.18   19.01
  -6  -3  -9  232.32   16.80
  -6  -3  -9  232.88   17.46
  -6  -3  -8  207.77   15.49
  -6  -3  -8  210.73   16.01
  -6  -3  -7    0.99    1.79
  -6  -3  -7    1.83    1.63
  -6  -3  -6    6.94    2.84
  -6  -3  -6    9.54    2.91
  -6  -3  -5   13.00    3.83
  -6  -3  -5    9.69    2.88
  -6  -3  -5    9.25    2.19
  -6  -3  -5    9.46    2.31
  -6  -3  -4   10.83    2.93
  -6  -3  -4   13.24    2.91
  -6  -3  -4    6.92    3.23
  -6  -3  -3  365.32   21.28
  -6  -3  -3  366.98   17.19
  -6  -3  -3  345.31   16.13
  -6  -3  -2  546.13   27.06
  -6  -3  -2  587.16   23.30
  -6  -3  -1  262.94   17.93
  -6  -3  -1  226.70   14.08
  -6  -3   0   21.79    4.42
  -6  -3   0   23.85    5.37
  -6  -3   1  331.79   19.03
  -6  -3   1  323.95   20.10
  -6  -3   2  324.86   19.82
  -6  -3   2  294.80   19.31
  -6  -3   3   35.88    6.56
  -6  -3   4   23.52    5.41
  -6  -3   5   28.73    5.82
  -6  -3   6   -1.20    1.72
  -6  -2 -11  150.64   15.18
  -6  -2 -10    0.34    1.40
  -6  -2  -9    9.98    4.06
  -6  -2  -9    7.41    2.88
  -6  -2  -8  554.45   26.94
  -6  -2  -8  572.50   26.29
  -6  -2  -7   30.38    5.84
  -6  -2  -7   37.59    6.18
  -6  -2  -6    3.13    2.23
  -6  -2  -6    3.04    1.85
  -6  -2  -6    4.32    2.92
  -6  -2  -5   20.55    3.79
  -6  -2  -5   34.62    5.10
  -6  -2  -5   36.79    6.68
  -6  -2  -4   40.13    5.38
  -6  -2  -4   42.08    5.24
  -6  -2  -4   48.14    7.57
  -6  -2  -3    1.95    1.36
  -6  -2  -3    0.79    0.98
  -6  -2  -3    1.06    1.46
  -6  -2  -2  304.88   19.35
  -6  -2  -2  317.80   16.48
  -6  -2  -1  552.72   23.62
  -6  -2  -1  581.66   27.35
  -6  -2   0  372.92   21.60
  -6  -2   0  376.43   19.62
  -6  -2   1    0.58    1.59
  -6  -2   1    2.03    2.41
  -6  -2   2  106.80   11.27
  -6  -2   2  109.72   11.38
  -6  -2   3   66.40    8.94
  -6  -2   3   56.64    8.46
  -6  -2   4   55.50    8.70
  -6  -2   4   39.56    6.84
  -6  -2   5   65.91    8.83
  -6  -2   6  148.96   13.46
  -6  -2   7   79.69    9.68
  -6  -1  -8    9.25    3.22
  -6  -1  -8   12.61    3.56
  -6  -1  -7   72.88    8.00
  -6  -1  -7   73.05    9.33
  -6  -1  -7   71.41    7.74
  -6  -1  -6   27.14    5.66
  -6  -1  -6   27.63    4.91
  -6  -1  -6   17.35    3.77
  -6  -1  -5   21.70    3.76
  -6  -1  -5   23.92    4.56
  -6  -1  -5   21.23    5.01
  -6  -1  -4  130.58   12.44
  -6  -1  -4  130.51    8.78
  -6  -1  -4  121.93   10.11
  -6  -1  -3  162.20   11.81
  -6  -1  -3  165.28    9.28
  -6  -1  -2   29.72    5.08
  -6  -1  -1  114.65   10.25
  -6  -1   0  977.59   34.93
  -6  -1   1  265.24   17.01
  -6  -1   2   38.81    6.83
  -6  -1   3    8.77    3.53
  -6  -1   3   10.05    3.46
  -6  -1   4    5.33    3.29
  -6  -1   4    5.13    2.84
  -6  -1   5   19.78    4.89
  -6  -1   5   14.69    5.37
  -6  -1   6   56.35    8.36
  -6  -1   7  227.37   16.82
  -6   0  -8   53.84    8.04
  -6   0  -7    1.68    2.28
  -6   0  -7    2.02    2.23
  -6   0  -6    8.51    3.20
  -6   0  -5   -0.22    1.56
  -6   0  -4    1.59    1.14
  -6   0  -4    3.34    1.98
  -6   0  -3  182.50   13.35
  -6   0  -2  373.00   20.10
  -6   0  -1  319.11   18.23
  -6   0   0  382.22   20.61
  -6   0   1   30.98    5.94
  -6   0   2  292.46   18.86
  -6   0   3   43.59    7.39
  -6   0   4   19.79    5.40
  -6   0   5   57.85    9.48
  -6   0   6    7.25    3.09
  -6   0   6    7.78    3.54
  -6   0   7   69.99    9.26
  -6   1  -8  197.55   15.57
  -6   1  -8  212.68   16.27
  -6   1  -7   82.26    9.71
  -6   1  -6   33.31    6.26
  -6   1  -5   23.04    5.01
  -6   1  -4   96.69   10.39
  -6   1  -3   11.86    3.58
  -6   1  -2  279.22   17.73
  -6   1  -1  386.22   21.25
  -6   1   0  195.93   14.91
  -6   1   1    1.93    2.03
  -6   1   2  110.16   11.42
  -6   1   3   40.67    7.14
  -6   1   4    6.83    3.21
  -6   1   5   55.72    9.73
  -6   1   6  144.25   15.30
  -6   1   7   33.62    8.16
  -6   1   8   74.16   11.92
  -6   2  -8   16.58    4.79
  -6   2  -7   47.82    7.97
  -6   2  -6   56.37    8.35
  -6   2  -5   84.52   10.14
  -6   2  -4  168.74   14.21
  -6   2  -3  386.24   22.07
  -6   2  -2   23.04    5.19
  -6   2  -1  137.57   12.85
  -6   2   0  439.52   23.92
  -6   2   1  270.03   18.61
  -6   2   2    6.97    2.79
  -6   2   3    1.80    1.99
  -6   2   4   12.32    4.42
  -6   2   5   26.01    6.43
  -6   2   6  149.37   15.74
  -6   2   7  226.78   20.14
  -6   2   8   11.58    5.17
  -6   3  -8   14.98    4.93
  -6   3  -7    8.09    3.37
  -6   3  -6   -0.22    2.52
  -6   3  -5    0.74    1.28
  -6   3  -4   33.78    6.80
  -6   3  -3  233.15   17.82
  -6   3  -2  404.93   24.06
  -6   3  -1  119.50   12.45
  -6   3   0   25.62    5.80
  -6   3   1  161.78   14.86
  -6   3   2  127.56   13.23
  -6   3   3   37.86    7.37
  -6   3   4  139.29   14.43
  -6   3   5   35.19    7.76
  -6   3   6    5.65    3.59
  -6   3   7  101.86   13.33
  -6   3   8  251.11   22.28
  -6   4  -8   53.97    9.78
  -6   4  -7   47.20    8.83
  -6   4  -6   23.16    5.98
  -6   4  -5   23.73    5.98
  -6   4  -4   51.46    8.72
  -6   4  -3    1.08    1.30
  -6   4  -2  234.90   18.49
  -6   4  -1  334.47   22.45
  -6   4   0  100.13   12.16
  -6   4   1    2.03    2.70
  -6   4   2   37.26    7.38
  -6   4   3   15.04    5.27
  -6   4   4   35.65    7.49
  -6   4   5  162.93   16.36
  -6   4   6  191.87   18.66
  -6   4   7   62.28   10.87
  -6   5  -6    6.30    3.67
  -6   5  -5   15.40    4.99
  -6   5  -4  193.40   17.89
  -6   5  -3  114.68   13.54
  -6   5  -2    3.46    2.92
  -6   5  -1  152.49   15.45
  -6   5   0  165.05   16.31
  -6   5   1  190.95   17.48
  -6   5   2   11.32    4.22
  -6   5   3    6.46    3.18
  -6   5   4   10.94    4.67
  -6   5   5   10.82    4.90
  -6   5   6  119.44   15.00
  -6   5   7  190.88   19.14
  -6   6  -4  100.56   13.48
  -6   6  -3   31.94    8.15
  -6   6  -2  285.60   22.60
  -6   6  -1   41.88    8.60
  -6   6   0   28.60    7.21
  -6   6   1   88.44   12.32
  -6   6   2   25.86    6.77
  -6   6   3   27.67    7.10
  -6   6   4   85.71   12.49
  -6   6   5  114.73   14.37
  -6   6   6    5.82    3.66
  -6   7  -1  190.02   18.98
  -6   7   0   47.75    9.64
  -6   7   1    2.59    4.24
  -6   7   2    1.20    2.15
  -6   7   3    3.47    2.57
  -6   7   4   20.01    6.40
  -5 -12  -6  156.92   16.79
  -5 -12  -5  169.38   17.45
  -5 -12  -4    6.74    3.74
  -5 -12  -3   34.26    7.96
  -5 -11  -9    2.60    2.68
  -5 -11  -8    8.90    4.30
  -5 -11  -8   17.02    5.70
  -5 -11  -7    3.46    2.18
  -5 -11  -7    4.68    3.02
  -5 -11  -6   12.55    4.71
  -5 -11  -6    9.33    4.14
  -5 -11  -5  192.67   17.76
  -5 -11  -4  282.57   21.72
  -5 -11  -3   41.12    8.25
  -5 -11  -2    7.82    3.78
  -5 -11  -1   18.57    6.00
  -5 -10 -11   28.38    7.00
  -5 -10 -10   64.11   10.24
  -5 -10  -9   45.48    8.99
  -5 -10  -9   37.42    7.79
  -5 -10  -8   19.27    5.54
  -5 -10  -8    8.60    3.70
  -5 -10  -7   89.90   11.48
  -5 -10  -7   70.31   10.81
  -5 -10  -6   44.60    8.04
  -5 -10  -6   40.93    8.01
  -5 -10  -5    5.72    3.27
  -5 -10  -5    4.59    2.74
  -5 -10  -4  209.13   17.66
  -5 -10  -3  211.19   17.88
  -5 -10  -2   38.80    7.88
  -5 -10  -1    7.78    3.49
  -5 -10   0   50.15    9.34
  -5  -9 -11   21.05    5.83
  -5  -9 -10    1.87    2.15
  -5  -9 -10    3.32    2.73
  -5  -9  -9    5.10    3.21
  -5  -9  -9    7.18    3.52
  -5  -9  -8    1.48    1.66
  -5  -9  -8    8.15    3.62
  -5  -9  -7   28.19    6.14
  -5  -9  -7   19.71    5.39
  -5  -9  -6  297.29   20.07
  -5  -9  -6  300.68   21.21
  -5  -9  -5   48.40    7.88
  -5  -9  -5   44.67    7.85
  -5  -9  -4   12.33    3.85
  -5  -9  -4    6.53    2.90
  -5  -9  -3  146.72   13.93
  -5  -9  -2  393.18   23.65
  -5  -9  -1  108.22   12.52
  -5  -9   0    9.47    3.98
  -5  -8 -11   97.17   13.11
  -5  -8 -10   36.92    7.83
  -5  -8  -9    8.12    3.66
  -5  -8  -9   10.04    4.16
  -5  -8  -8   19.55    5.15
  -5  -8  -8   24.56    6.03
  -5  -8  -7    7.45    3.37
  -5  -8  -7   11.45    4.27
  -5  -8  -6    6.94    2.81
  -5  -8  -6   11.83    3.81
  -5  -8  -5  353.14   20.99
  -5  -8  -5  399.01   23.23
  -5  -8  -4  231.89   17.26
  -5  -8  -4  202.77   15.63
  -5  -8  -3   56.31    8.08
  -5  -8  -2   74.93    9.49
  -5  -8  -1  149.09   13.90
  -5  -7 -11   19.20    6.00
  -5  -7 -10  114.23   13.46
  -5  -7  -9    4.52    2.07
  -5  -7  -9    6.20    3.25
  -5  -7  -8  143.81   12.73
  -5  -7  -8  123.97   13.01
  -5  -7  -7  121.01   12.44
  -5  -7  -7  124.65   11.54
  -5  -7  -6   47.77    7.03
  -5  -7  -6   48.41    7.59
  -5  -7  -5   14.54    3.89
  -5  -7  -5   23.11    5.13
  -5  -7  -4  331.19   18.89
  -5  -7  -4  319.91   19.48
  -5  -7  -3  481.84   24.08
  -5  -7  -3  424.71   22.12
  -5  -7  -2  146.41   12.50
  -5  -7  -1    4.49    3.07
  -5  -6 -12  114.45   14.40
  -5  -6 -11   14.11    4.87
  -5  -6 -10    2.42    2.09
  -5  -6  -9   -0.41    1.00
  -5  -6  -8   35.92    6.70
  -5  -6  -8   37.95    6.18
  -5  -6  -7  131.14   11.13
  -5  -6  -7  143.14   13.09
  -5  -6  -6  479.13   21.84
  -5  -6  -6  471.60   23.99
  -5  -6  -5  446.52   22.70
  -5  -6  -5  452.06   21.09
  -5  -6  -4   22.65    4.36
  -5  -6  -4   30.47    5.56
  -5  -6  -3  128.80   11.33
  -5  -6  -3  130.36   10.88
  -5  -6  -2  328.75   18.22
  -5  -6  -1  244.35   16.23
  -5  -5 -12   74.99   11.45
  -5  -5 -11  107.82   12.98
  -5  -5 -10   46.20    8.24
  -5  -5  -9   15.18    4.48
  -5  -5  -8   67.28    9.08
  -5  -5  -8   63.39    7.44
  -5  -5  -7    5.06    2.17
  -5  -5  -7    2.51    1.66
  -5  -5  -6   87.09    9.42
  -5  -5  -6   87.82    8.18
  -5  -5  -5  449.06   21.41
  -5  -5  -5  414.07   18.79
  -5  -5  -4  682.04   25.10
  -5  -5  -4  627.18   26.05
  -5  -5  -3  191.75   13.06
  -5  -5  -3  186.36   12.23
  -5  -5  -2    0.26    0.84
  -5  -5  -1    4.06    2.27
  -5  -4 -12    4.64    2.31
  -5  -4 -11   21.88    5.78
  -5  -4 -10   52.14    8.51
  -5  -4  -9   35.74    6.65
  -5  -4  -8   99.49   10.67
  -5  -4  -7  160.73   13.07
  -5  -4  -7  189.11   11.59
  -5  -4  -6   42.01    6.22
  -5  -4  -6   41.54    2.65
  -5  -4  -6   42.67    6.54
  -5  -4  -6   37.29    4.92
  -5  -4  -5    4.54    1.91
  -5  -4  -5    7.13    2.71
  -5  -4  -5    4.13    2.15
  -5  -4  -5    4.79    1.14
  -5  -4  -4  534.23   24.58
  -5  -4  -4  527.12   19.99
  -5  -4  -4  489.08   21.38
  -5  -4  -4  521.45   15.90
  -5  -4  -3  263.37   14.68
  -5  -4  -3  255.17   13.30
  -5  -4  -3  252.74   11.39
  -5  -4  -3  267.34   16.66
  -5  -4  -2  114.44    9.10
  -5  -4  -2  100.44    9.99
  -5  -4  -1   16.98    4.04
  -5  -4   0   -0.45    1.18
  -5  -4   1   11.46    3.54
  -5  -4   2  115.49   10.95
  -5  -4   3  285.99   17.61
  -5  -3 -12  123.89   14.37
  -5  -3 -11   22.84    5.89
  -5  -3 -10   16.41    4.61
  -5  -3  -9    4.33    2.50
  -5  -3  -8    0.20    0.96
  -5  -3  -8    3.53    2.03
  -5  -3  -7   95.60    9.60
  -5  -3  -7   90.68    7.22
  -5  -3  -7   96.67    9.68
  -5  -3  -7  104.90    6.56
  -5  -3  -6  429.41   14.47
  -5  -3  -6  402.67   15.71
  -5  -3  -6  425.79   21.25
  -5  -3  -6  399.65   19.66
  -5  -3  -5  262.93   10.92
  -5  -3  -5  270.55   16.48
  -5  -3  -5  253.00   14.48
  -5  -3  -5  259.69   11.94
  -5  -3  -4    2.46    1.18
  -5  -3  -4    2.91    1.18
  -5  -3  -4    2.83    1.75
  -5  -3  -4    4.90    2.08
  -5  -3  -3   99.51    8.04
  -5  -3  -3   83.60    6.47
  -5  -3  -3   96.80    7.20
  -5  -3  -3   80.27    8.67
  -5  -3  -2  237.68   12.73
  -5  -3  -2  245.29   12.27
  -5  -3  -2  251.10   15.80
  -5  -3  -1  126.05   11.01
  -5  -3  -1  159.53   10.26
  -5  -3   0   98.73    8.53
  -5  -3   0   92.56    9.40
  -5  -3   1   25.64    4.65
  -5  -3   1   26.15    5.07
  -5  -3   2   14.09    3.83
  -5  -3   3   93.17    9.54
  -5  -3   4  415.86   21.28
  -5  -3   5  336.75   18.93
  -5  -2 -12   81.12   11.56
  -5  -2 -11   48.75    8.49
  -5  -2 -10   31.00    6.39
  -5  -2  -9  154.78   13.73
  -5  -2  -9  189.21   13.27
  -5  -2  -8   23.87    5.11
  -5  -2  -8   26.82    4.97
  -5  -2  -7   46.62    6.62
  -5  -2  -7   59.98    5.00
  -5  -2  -7   52.01    6.98
  -5  -2  -7   60.25    5.79
  -5  -2  -6   61.25    7.01
  -5  -2  -6   57.50    7.40
  -5  -2  -6   55.69    5.44
  -5  -2  -6   62.30    4.74
  -5  -2  -5  289.50   13.03
  -5  -2  -5  254.68   14.00
  -5  -2  -5  278.95   10.65
  -5  -2  -5  270.44   16.50
  -5  -2  -4  271.46   13.41
  -5  -2  -4  250.51   12.16
  -5  -2  -4  242.18   15.50
  -5  -2  -4  248.45   10.09
  -5  -2  -3   42.18    4.80
  -5  -2  -3   42.42    4.80
  -5  -2  -3   50.88    6.88
  -5  -2  -2   22.83    3.42
  -5  -2  -2   26.93    4.07
  -5  -2  -2   24.42    4.78
  -5  -2  -1   44.82    6.48
  -5  -2  -1   49.09    5.75
  -5  -2   0  112.20   10.26
  -5  -2   0  104.75    8.94
  -5  -2   1  166.76   11.99
  -5  -2   1  147.30   12.04
  -5  -2   2  335.72   18.66
  -5  -2   2  363.68   19.22
  -5  -2   3  267.22   16.52
  -5  -2   3  290.75   18.00
  -5  -2   4   81.07    8.79
  -5  -2   5  110.26   10.35
  -5  -2   6  342.01   18.86
  -5  -2   7  129.10   11.15
  -5  -1 -12    8.53    3.44
  -5  -1 -11    6.76    3.49
  -5  -1 -10   24.42    5.89
  -5  -1  -9  102.90   10.94
  -5  -1  -8   49.11    7.03
  -5  -1  -8   49.24    6.70
  -5  -1  -7  380.17   19.27
  -5  -1  -7  377.17   19.80
  -5  -1  -7  399.94   17.97
  -5  -1  -6   71.74    6.87
  -5  -1  -6   78.61    7.64
  -5  -1  -6   66.18    7.95
  -5  -1  -5  100.44    8.07
  -5  -1  -5  116.30    8.69
  -5  -1  -5  104.84    9.95
  -5  -1  -4  279.99   14.06
  -5  -1  -4  247.68   12.27
  -5  -1  -3  370.86   16.64
  -5  -1  -3  368.34   14.23
  -5  -1  -2  186.48    9.16
  -5  -1  -2  188.99   11.55
  -5  -1  -1    2.36    1.15
  -5  -1   0  113.22    9.42
  -5  -1   1   33.33    5.34
  -5  -1   2  225.27   14.88
  -5  -1   3  389.50   20.90
  -5  -1   3  381.09   19.83
  -5  -1   4  226.73   15.09
  -5  -1   4  234.74   16.71
  -5  -1   5   73.78    8.40
  -5  -1   5   65.63    9.28
  -5  -1   6   71.01    8.27
  -5  -1   7   96.69    9.58
  -5   0 -12   70.09   11.18
  -5   0 -11   10.68    4.39
  -5   0 -10    4.32    3.06
  -5   0  -9   12.46    4.06
  -5   0  -8   28.33    5.39
  -5   0  -8   28.44    5.17
  -5   0  -7  213.87   13.91
  -5   0  -7  209.81   13.75
  -5   0  -7  233.18   15.12
  -5   0  -6  500.18   21.82
  -5   0  -6  545.95   21.43
  -5   0  -5  199.54   11.25
  -5   0  -5  202.90   12.80
  -5   0  -4    3.71    1.49
  -5   0  -4    4.23    2.20
  -5   0  -3  100.16    8.83
  -5   0  -3  102.75    6.24
  -5   0  -2  321.74   16.39
  -5   0  -1  352.74   17.66
  -5   0   0  333.64   17.32
  -5   0   1  420.45   20.41
  -5   0   2   65.15    5.22
  -5   0   2   64.42    7.84
  -5   0   3   30.76    4.08
  -5   0   3   35.54    6.13
  -5   0   4  436.14   23.22
  -5   0   5  359.59   21.87
  -5   0   6   33.10    6.86
  -5   0   6   27.29    5.06
  -5   0   7   -0.45    1.68
  -5   1 -10   25.01    5.98
  -5   1  -9   50.82    7.89
  -5   1  -8   82.07    9.22
  -5   1  -7    1.42    1.73
  -5   1  -6  138.70   11.58
  -5   1  -6  152.84   10.48
  -5   1  -5  296.44   13.66
  -5   1  -5  289.19   16.76
  -5   1  -4  618.25   19.08
  -5   1  -4  574.72   24.52
  -5   1  -3   40.45    5.89
  -5   1  -3   36.71    3.21
  -5   1  -2   11.02    3.21
  -5   1  -1    1.10    0.96
  -5   1   0    2.42    1.67
  -5   1   1  547.30   24.30
  -5   1   2  541.59   24.78
  -5   1   2  525.87   16.28
  -5   1   3  343.39   14.39
  -5   1   3  377.21   20.88
  -5   1   4   11.23    3.75
  -5   1   5  214.25   16.66
  -5   1   6  138.64   13.89
  -5   1   7   37.86    7.88
  -5   1   8  127.13   11.28
  -5   2  -7  231.59   14.70
  -5   2  -6   51.01    6.03
  -5   2  -5   16.16    2.99
  -5   2  -5   15.55    4.08
  -5   2  -4  392.84   13.70
  -5   2  -4  361.07   19.88
  -5   2  -3   86.47    9.18
  -5   2  -3   69.96    3.89
  -5   2  -2  117.59   10.71
  -5   2  -1  112.00   10.55
  -5   2   0   34.28    5.83
  -5   2   1   31.16    5.63
  -5   2   1   21.79    1.89
  -5   2   2  160.81    7.85
  -5   2   2  167.86   13.41
  -5   2   3  358.34   14.89
  -5   2   3  409.63   22.09
  -5   2   4  294.43   19.26
  -5   2   5   19.74    5.20
  -5   2   6   32.94    6.79
  -5   2   7   48.95    8.74
  -5   2   8   46.30    8.73
  -5   3  -5  149.26   13.35
  -5   3  -4   12.08    3.67
  -5   3  -3   37.74    6.37
  -5   3  -2   15.32    4.13
  -5   3  -1   29.88    5.67
  -5   3   0  164.40   13.53
  -5   3   1  138.36   12.65
  -5   3   2   65.07    8.58
  -5   3   3   84.58    9.89
  -5   3   4  501.38   26.26
  -5   3   5  177.08   15.52
  -5   3   6   44.90    8.14
  -5   3   7    3.65    2.57
  -5   3   8    3.07    3.11
  -5   3   9    3.75    3.90
  -5   4  -5  202.03   16.61
  -5   4  -4  121.66   12.45
  -5   4  -3   12.79    3.94
  -5   4  -2    3.09    2.60
  -5   4  -1   32.32    6.32
  -5   4   0   33.33    6.48
  -5   4   1   88.98   10.47
  -5   4   2  373.09   22.26
  -5   4   3  142.29   13.56
  -5   4   4   23.79    5.76
  -5   4   5   79.40   10.45
  -5   4   6  206.27   17.67
  -5   4   7   36.05    7.58
  -5   4   8   24.01    6.35
  -5   4   9   47.18    9.31
  -5   5  -5   34.32    7.06
  -5   5  -4  130.87   13.62
  -5   5  -3  103.43   11.93
  -5   5  -2   40.20    7.41
  -5   5  -1   46.54    7.86
  -5   5   0   23.49    5.71
  -5   5   1   13.39    4.32
  -5   5   2  193.02   16.38
  -5   5   3  320.42   21.65
  -5   5   4  204.61   17.04
  -5   5   5    0.69    1.98
  -5   5   6   27.71    6.64
  -5   5   7   16.49    5.38
  -5   5   8    8.82    4.17
  -5   5   9   31.03    7.77
  -5   6  -5   71.35   10.87
  -5   6  -4   13.68    4.37
  -5   6  -3   18.80    5.22
  -5   6  -2   52.31    8.98
  -5   6  -1   67.66   10.01
  -5   6   0  232.76   18.62
  -5   6   1  232.22   18.70
  -5   6   2   47.54    8.45
  -5   6   3   69.68   10.33
  -5   6   4  240.99   19.50
  -5   6   5  171.32   16.50
  -5   6   6   26.00    6.74
  -5   6   7    0.26    2.35
  -5   6   8    3.51    3.35
  -5   6   9    3.29    3.87
  -5   7  -4   12.75    5.10
  -5   7  -3   66.94   10.89
  -5   7  -2    2.57    2.97
  -5   7  -1    2.37    1.93
  -5   7   0    0.52    1.59
  -5   7   1  222.38   19.22
  -5   7   2  353.92   24.36
  -5   7   3  123.56   14.10
  -5   7   4   11.68    4.42
  -5   7   5   91.17   12.29
  -5   7   6   75.55   11.54
  -5   7   7   37.44    8.25
  -5   7   8   25.29    7.00
  -5   8  -2   30.00    7.42
  -5   8  -1   30.09    7.69
  -5   8   0   71.96   11.22
  -5   8   1    5.09    3.35
  -5   8   2   83.64   12.14
  -5   8   3  130.79   15.23
  -5   8   4  120.52   14.65
  -5   8   5    4.42    3.27
  -5   8   6    4.69    2.55
  -4 -12  -7   24.18    6.76
  -4 -12  -7   27.17    6.97
  -4 -12  -6  111.82   14.10
  -4 -12  -6  151.47   16.09
  -4 -12  -5   77.96   11.55
  -4 -12  -4   16.35    5.43
  -4 -12  -3   28.90    7.06
  -4 -12  -2   20.63    6.20
  -4 -12  -1    5.70    3.56
  -4 -12   0   72.41   11.83
  -4 -11  -9  169.08   17.61
  -4 -11  -9  211.11   19.29
  -4 -11  -8  222.11   19.29
  -4 -11  -8  160.65   17.00
  -4 -11  -7   94.41   12.66
  -4 -11  -7  132.15   14.40
  -4 -11  -6    3.84    2.72
  -4 -11  -6    1.68    2.81
  -4 -11  -5   52.86    9.33
  -4 -11  -5   53.21    9.06
  -4 -11  -4   65.45    9.97
  -4 -11  -3   36.78    7.63
  -4 -11  -2  136.73   14.78
  -4 -11  -1  105.13   13.07
  -4 -11   0   15.82    5.54
  -4 -10 -10   79.83   12.15
  -4 -10  -9   16.47    5.02
  -4 -10  -9   24.74    6.39
  -4 -10  -8   41.47    8.08
  -4 -10  -8   31.98    7.17
  -4 -10  -7  256.43   19.49
  -4 -10  -7  232.17   19.18
  -4 -10  -6  160.96   15.20
  -4 -10  -6  178.90   16.32
  -4 -10  -5   11.44    4.32
  -4 -10  -5    9.74    3.99
  -4 -10  -4   10.22    3.70
  -4 -10  -3    5.64    2.88
  -4 -10  -2    7.67    3.45
  -4 -10  -1  147.84   14.76
  -4 -10   0  281.55   21.20
  -4  -9 -11   14.25    5.23
  -4  -9 -10  144.79   15.70
  -4  -9  -9  283.96   21.63
  -4  -9  -8  148.72   14.44
  -4  -9  -8  138.87   14.40
  -4  -9  -7   15.29    4.62
  -4  -9  -7   13.27    4.23
  -4  -9  -6  257.36   18.93
  -4  -9  -6  252.09   18.24
  -4  -9  -5    3.00    2.88
  -4  -9  -5    8.35    3.32
  -4  -9  -4  112.18   11.91
  -4  -9  -4  105.25   11.34
  -4  -9  -3   37.10    6.83
  -4  -9  -2  126.57   12.74
  -4  -9  -1    1.44    1.38
  -4  -9   0   74.46   10.17
  -4  -8 -11   58.46   10.31
  -4  -8 -10    2.75    2.74
  -4  -8  -9  199.80   17.48
  -4  -8  -8  363.45   23.05
  -4  -8  -7  198.66   16.29
  -4  -8  -7  217.03   16.42
  -4  -8  -6    4.10    2.32
  -4  -8  -6   10.16    3.51
  -4  -8  -5   35.28    6.60
  -4  -8  -5   32.21    5.94
  -4  -8  -4  262.10   17.92
  -4  -8  -4  275.33   17.60
  -4  -8  -3   15.16    4.32
  -4  -8  -3   19.94    4.90
  -4  -8  -2  252.62   17.26
  -4  -8  -1  525.72   25.86
  -4  -8   0   86.42   10.55
  -4  -7 -12   18.09    5.84
  -4  -7 -11   82.03   11.62
  -4  -7 -10  177.41   16.67
  -4  -7  -9    4.24    2.69
  -4  -7  -8   74.56    9.85
  -4  -7  -7  249.77   17.71
  -4  -7  -6  210.34   15.59
  -4  -7  -6  191.62   14.33
  -4  -7  -5    5.29    2.37
  -4  -7  -5    8.10    3.15
  -4  -7  -4   10.58    3.49
  -4  -7  -4   10.76    3.28
  -4  -7  -3   57.82    7.57
  -4  -7  -3   62.58    7.66
  -4  -7  -2    3.96    2.32
  -4  -7  -1  406.67   21.14
  -4  -7   0  869.95   34.09
  -4  -6 -12    1.56    2.63
  -4  -6 -11   20.53    5.73
  -4  -6 -10  155.33   15.14
  -4  -6  -9  272.21   19.33
  -4  -6  -8   10.30    3.78
  -4  -6  -7   73.00    9.08
  -4  -6  -6  245.17   16.24
  -4  -6  -6  222.89   14.62
  -4  -6  -5  133.63   11.29
  -4  -6  -5  106.66    9.60
  -4  -6  -4   20.74    4.20
  -4  -6  -4   20.02    4.21
  -4  -6  -3  182.08   12.46
  -4  -6  -3  169.44   12.49
  -4  -6  -2  216.78   13.99
  -4  -6  -1    1.36    1.84
  -4  -6   0  158.16   12.51
  -4  -5 -12   35.97    7.86
  -4  -5 -11   78.81   11.00
  -4  -5 -10    4.53    3.02
  -4  -5  -9  241.25   17.81
  -4  -5  -8  414.38   22.80
  -4  -5  -7  147.29   12.51
  -4  -5  -6    0.71    1.67
  -4  -5  -5   17.61    3.60
  -4  -5  -5   10.07    3.04
  -4  -5  -4   38.01    5.53
  -4  -5  -4   29.16    4.55
  -4  -5  -3   51.32    6.02
  -4  -5  -3   53.69    6.51
  -4  -5  -2  600.82   23.56
  -4  -5  -2  563.55   22.44
  -4  -5  -1  273.09   15.00
  -4  -5   0  217.93   14.01
  -4  -4 -12   36.84    7.81
  -4  -4 -11  182.93   16.86
  -4  -4 -10  255.74   18.87
  -4  -4  -9    0.35    1.28
  -4  -4  -8  150.85   13.05
  -4  -4  -7  295.19   17.62
  -4  -4  -6  189.69   13.30
  -4  -4  -5   77.85    7.00
  -4  -4  -5   78.73    7.94
  -4  -4  -4  123.53   10.15
  -4  -4  -4  126.58    9.73
  -4  -4  -4  126.92    8.74
  -4  -4  -3  240.96   12.32
  -4  -4  -3  225.07   12.84
  -4  -4  -3  231.54   14.14
  -4  -4  -2    4.87    2.45
  -4  -4  -2    1.25    1.24
  -4  -4  -1  534.61   22.68
  -4  -4  -1  539.76   20.85
  -4  -4   0  712.96   26.98
  -4  -4   1  221.81   13.94
  -4  -3 -12   10.64    4.46
  -4  -3 -11   75.84   10.64
  -4  -3 -10  457.22   25.80
  -4  -3  -9  242.04   17.23
  -4  -3  -8  125.06   11.64
  -4  -3  -7   33.14    3.25
  -4  -3  -7   40.70    5.54
  -4  -3  -7   37.16    5.89
  -4  -3  -6  121.67    5.90
  -4  -3  -6   96.91    8.68
  -4  -3  -6  107.53    9.49
  -4  -3  -5  216.16   10.90
  -4  -3  -5  220.80    8.11
  -4  -3  -5  201.11   12.78
  -4  -3  -5  214.69   12.85
  -4  -3  -4    2.73    1.53
  -4  -3  -4    0.60    0.78
  -4  -3  -4    4.36    2.03
  -4  -3  -4    2.50    0.88
  -4  -3  -3  663.72   18.36
  -4  -3  -3  654.85   22.47
  -4  -3  -3  677.76   25.10
  -4  -3  -3  658.87   20.79
  -4  -3  -2  397.76   14.15
  -4  -3  -2  419.02   18.94
  -4  -3  -2  433.19   16.88
  -4  -3  -2  378.49   15.14
  -4  -3  -1   20.45    3.15
  -4  -3  -1   20.31    3.47
  -4  -3  -1   19.57    3.88
  -4  -3   0  490.57   20.75
  -4  -3   0  475.93   18.60
  -4  -3   1  742.97   27.00
  -4  -3   2  271.78   15.06
  -4  -3   3    3.17    1.70
  -4  -3   4    3.39    1.81
  -4  -2 -12  122.29   14.51
  -4  -2 -11   91.34   11.68
  -4  -2 -10   64.60    9.39
  -4  -2  -9   42.57    7.15
  -4  -2  -8 1017.91   36.91
  -4  -2  -8 1049.48   32.70
  -4  -2  -7   45.42    5.66
  -4  -2  -7   35.30    5.68
  -4  -2  -6    0.41    1.17
  -4  -2  -6    0.80    0.92
  -4  -2  -6    1.70    1.21
  -4  -2  -5   22.39    2.94
  -4  -2  -5   16.65    3.48
  -4  -2  -5   19.00    3.55
  -4  -2  -5   24.47    3.11
  -4  -2  -4    0.44    0.82
  -4  -2  -4    0.53    0.42
  -4  -2  -4    2.04    1.08
  -4  -2  -4    2.72    1.61
  -4  -2  -3  287.13   11.48
  -4  -2  -3  288.48   12.83
  -4  -2  -3  284.39   15.07
  -4  -2  -3  273.85   10.79
  -4  -2  -2 1288.22   32.80
  -4  -2  -2 1244.92   31.97
  -4  -2  -2 1315.76   37.95
  -4  -2  -2 1256.06   31.35
  -4  -2  -1  911.61   26.62
  -4  -2  -1  945.12   30.57
  -4  -2   0  276.09   13.30
  -4  -2   0  284.20   15.00
  -4  -2   1  315.80   16.02
  -4  -2   1  314.05   15.30
  -4  -2   2  804.70   28.31
  -4  -2   2  797.83   27.90
  -4  -2   3  198.38   12.54
  -4  -2   3  228.67   14.65
  -4  -2   4   83.42    7.95
  -4  -2   5   58.31    6.70
  -4  -2   6  131.45   10.02
  -4  -1 -12   33.74    7.64
  -4  -1 -11  216.75   18.60
  -4  -1 -10  232.38   18.18
  -4  -1  -9    0.00    1.26
  -4  -1  -8  113.20   10.91
  -4  -1  -8  121.57    9.25
  -4  -1  -7  144.52   10.33
  -4  -1  -7  140.91   11.32
  -4  -1  -6   31.09    4.77
  -4  -1  -6   37.25    5.13
  -4  -1  -5   37.55    4.83
  -4  -1  -5   41.60    4.61
  -4  -1  -5   43.08    5.59
  -4  -1  -5   40.49    3.26
  -4  -1  -4  196.41    7.15
  -4  -1  -4  183.32    9.87
  -4  -1  -4  189.51   10.28
  -4  -1  -3   74.56    5.72
  -4  -1  -3   70.75    5.94
  -4  -1  -2   15.02    2.32
  -4  -1  -2   22.36    3.31
  -4  -1  -1  667.03   22.03
  -4  -1   0 2655.47   61.43
  -4  -1   1  555.11   21.60
  -4  -1   2    0.34    0.79
  -4  -1   2    1.78    1.51
  -4  -1   3  114.95   10.12
  -4  -1   3  114.37    8.20
  -4  -1   4    0.24    1.24
  -4  -1   4   -0.16    0.76
  -4  -1   5   90.42    8.24
  -4  -1   6  181.38   11.73
  -4  -1   7  375.05   17.52
  -4   0 -12    0.73    2.13
  -4   0 -11   25.83    6.53
  -4   0 -11   21.84    5.54
  -4   0 -10  245.91   17.37
  -4   0 -10  210.85   17.20
  -4   0  -9  288.78   18.94
  -4   0  -9  275.99   17.42
  -4   0  -8    7.45    2.24
  -4   0  -8   11.97    3.53
  -4   0  -8   13.73    3.57
  -4   0  -7   28.94    4.52
  -4   0  -7   33.71    5.43
  -4   0  -7   35.69    5.07
  -4   0  -6   65.26    7.03
  -4   0  -6   68.67    6.34
  -4   0  -5   11.03    2.63
  -4   0  -4   38.75    4.77
  -4   0  -4   42.73    4.49
  -4   0  -3  286.20   11.21
  -4   0  -3  288.85   13.77
  -4   0  -2  402.82   12.45
  -4   0  -2  414.75   17.00
  -4   0  -1  296.87   14.27
  -4   0   0 2548.51   60.41
  -4   0   1   53.02    6.04
  -4   0   1   62.23    3.98
  -4   0   2  480.80   20.75
  -4   0   2  483.61   15.83
  -4   0   3   25.41    3.59
  -4   0   3   25.98    4.78
  -4   0   4    0.41    1.14
  -4   0   5   61.15    8.05
  -4   0   6    6.69    3.23
  -4   0   6    3.62    1.66
  -4   0   7  146.29   10.58
  -4   0   8  410.92   18.32
  -4   1 -12  120.22   14.57
  -4   1 -11   92.32   12.02
  -4   1 -10   13.94    4.08
  -4   1 -10   17.00    4.73
  -4   1  -9  220.49   16.58
  -4   1  -9  233.90   16.05
  -4   1  -8  262.87   17.03
  -4   1  -8  280.52   16.36
  -4   1  -7   42.98    5.64
  -4   1  -7   54.65    6.96
  -4   1  -6   19.77    3.45
  -4   1  -6   15.20    3.40
  -4   1  -5    2.77    1.51
  -4   1  -5    1.13    0.93
  -4   1  -4  101.34    5.77
  -4   1  -4   93.38    6.68
  -4   1  -3  156.10    7.49
  -4   1  -3  160.62   10.76
  -4   1  -2  856.61   27.86
  -4   1  -2  813.05   19.14
  -4   1  -1  640.55   23.81
  -4   1   0  106.83    8.93
  -4   1   1  158.52   11.06
  -4   1   1  143.70    5.94
  -4   1   2  547.54   22.54
  -4   1   2  525.70   16.49
  -4   1   3  140.67    8.62
  -4   1   3  141.58   11.26
  -4   1   4    5.12    2.31
  -4   1   5   16.14    4.19
  -4   1   6  139.43   12.86
  -4   1   7    6.54    3.18
  -4   1   8  205.52   12.78
  -4   2 -11  174.95   16.88
  -4   2 -10  110.70   12.60
  -4   2  -9    0.11    1.17
  -4   2  -9    1.78    1.76
  -4   2  -8  160.78   13.24
  -4   2  -8  166.71   12.70
  -4   2  -7  146.00   10.91
  -4   2  -7  124.90   10.73
  -4   2  -6   80.70    7.29
  -4   2  -6   69.03    7.27
  -4   2  -5   97.54    7.85
  -4   2  -5  100.23    7.33
  -4   2  -4  188.14    8.93
  -4   2  -4  183.58    9.67
  -4   2  -3  450.66   13.98
  -4   2  -3  433.96   12.89
  -4   2  -3  448.12   20.27
  -4   2  -2    0.25    0.26
  -4   2  -2    1.12    0.37
  -4   2  -1  508.76   21.60
  -4   2   0  769.41   28.00
  -4   2   0  769.01   16.56
  -4   2   1  262.13   15.23
  -4   2   1  243.99    8.69
  -4   2   2   94.09    9.06
  -4   2   2  115.27    6.73
  -4   2   3  134.31    8.47
  -4   2   3  155.09   11.93
  -4   2   4    1.03    1.37
  -4   2   5   20.06    4.52
  -4   2   6  184.07   14.86
  -4   2   7  300.81   20.25
  -4   2   8    6.05    2.90
  -4   3  -8    1.33    1.36
  -4   3  -7    6.14    2.39
  -4   3  -6   53.51    6.25
  -4   3  -5   19.82    3.54
  -4   3  -4  129.34    8.04
  -4   3  -3  483.37   14.93
  -4   3  -3  447.19   14.95
  -4   3  -3  474.20   22.33
  -4   3  -2  420.68   11.05
  -4   3  -2  476.76   13.63
  -4   3  -2  475.46   21.83
  -4   3  -1    8.68    3.19
  -4   3  -1    9.62    1.50
  -4   3   0  436.29   12.84
  -4   3   0  435.58   20.98
  -4   3   1  590.73   24.96
  -4   3   1  562.72   16.62
  -4   3   2  137.23    7.89
  -4   3   2  156.07   12.17
  -4   3   3   23.59    4.67
  -4   3   3   18.80    3.26
  -4   3   4   22.80    4.88
  -4   3   5    8.81    3.18
  -4   3   6   -0.16    1.11
  -4   3   7  202.12   16.44
  -4   3   8  440.23   25.97
  -4   3   9  167.92   16.48
  -4   4  -7   69.22    8.31
  -4   4  -6    7.83    2.75
  -4   4  -5    6.32    2.25
  -4   4  -4   15.68    3.10
  -4   4  -3   92.65    6.80
  -4   4  -2  734.21   17.71
  -4   4  -2  732.57   21.26
  -4   4  -2  727.05   29.92
  -4   4  -2  742.40   17.60
  -4   4  -1  654.74   19.13
  -4   4  -1  676.62   28.18
  -4   4   0   69.14    8.30
  -4   4   1  213.80   10.28
  -4   4   1  208.33   14.83
  -4   4   2  487.38   17.78
  -4   4   2  499.29   24.14
  -4   4   3  163.90   13.28
  -4   4   3  157.06    9.98
  -4   4   4   55.92    7.83
  -4   4   5  114.16   11.48
  -4   4   6  147.22   13.56
  -4   4   7   15.18    4.56
  -4   4   8  168.97   15.73
  -4   4   9  290.38   21.89
  -4   4  10  116.87   14.38
  -4   5  -5   10.30    2.80
  -4   5  -4  212.08   12.67
  -4   5  -3  120.43    8.66
  -4   5  -2   24.00    3.55
  -4   5  -2   27.55    5.70
  -4   5  -1  541.41   26.34
  -4   5  -1  546.55   18.76
  -4   5   0  480.78   24.32
  -4   5   1  389.52   21.73
  -4   5   2   18.58    4.70
  -4   5   2   12.95    2.96
  -4   5   3   16.94    4.46
  -4   5   4   15.14    4.22
  -4   5   5   60.11    8.60
  -4   5   6  293.36   19.95
  -4   5   7  354.84   22.76
  -4   5   8   90.19   11.63
  -4   5   9   27.43    6.56
  -4   5  10  149.28   16.06
  -4   5  11   61.70   10.68
  -4   6  -3   48.25    5.91
  -4   6  -2  291.98   20.08
  -4   6  -2  330.33   15.62
  -4   6  -1    1.95    1.98
  -4   6  -1    2.87    1.71
  -4   6   0  223.58   16.97
  -4   6   1  390.41   22.90
  -4   6   2   92.99   10.82
  -4   6   3    8.76    4.02
  -4   6   4   71.22    9.74
  -4   6   5   36.31    6.84
  -4   6   6   -0.06    2.17
  -4   6   7  107.73   12.51
  -4   6   8  278.99   21.19
  -4   6   9   71.15   10.78
  -4   6  10   -0.11    2.33
  -4   6  11   31.16    8.09
  -4   7  -2  340.83   23.00
  -4   7  -1  387.12   18.33
  -4   7  -1  411.56   24.81
  -4   7   0   32.60    6.83
  -4   7   1   41.78    7.58
  -4   7   2   66.30    9.63
  -4   7   3   14.42    4.56
  -4   7   4   46.83    8.15
  -4   7   5   44.97    8.05
  -4   7   6   92.24   11.75
  -4   7   7    6.71    3.65
  -4   7   8   61.01    9.92
  -4   7   9  180.89   17.66
  -4   7  10   37.13    8.43
  -4   8  -3   63.82   10.62
  -4   8  -2    7.45    3.72
  -4   8  -1  191.66   17.62
  -4   8   0  228.48   18.95
  -4   8   1   57.94    9.33
  -4   8   2    8.50    3.84
  -4   8   3    1.75    2.61
  -4   8   4   43.41    8.24
  -4   8   5   34.53    7.63
  -4   8   6  289.81   21.69
  -4   8   7   91.09   12.22
  -4   8   8    9.55    4.24
  -4   8   9   36.72    8.31
  -4   9  -2  108.30   13.98
  -4   9  -1   -0.45    1.77
  -4   9   0   43.72    8.68
  -4   9   1  161.13   16.44
  -4   9   2   18.56    5.93
  -4   9   3    9.49    4.64
  -4   9   4    8.47    3.86
  -4   9   5   30.70    7.04
  -4   9   6   32.15    7.48
  -4   9   7   72.97   11.42
  -4   9   8  100.52   13.28
  -4  10   1   20.87    6.54
  -4  10   2   61.48   10.63
  -4  10   3   21.53    6.28
  -4  10   4   41.44    8.77
  -4  10   5   67.84   11.15
  -4  10   6   37.07    8.12
  -3 -12  -8   36.47    8.07
  -3 -12  -8   44.96    9.11
  -3 -12  -7   64.19   10.64
  -3 -12  -7   77.49   11.48
  -3 -12  -6  125.73   14.53
  -3 -12  -6  169.00   16.87
  -3 -12  -5   54.92    9.62
  -3 -12  -4   27.73    6.89
  -3 -12  -3  128.05   14.65
  -3 -12  -2  164.55   16.74
  -3 -12  -1   29.57    6.92
  -3 -12   0    0.64    1.27
  -3 -12   1   -0.50    1.84
  -3 -11  -9    1.83    2.17
  -3 -11  -8    3.16    2.73
  -3 -11  -8    1.35    2.06
  -3 -11  -7    9.45    4.20
  -3 -11  -7    6.33    3.63
  -3 -11  -6  134.63   14.51
  -3 -11  -6  140.45   14.69
  -3 -11  -5  322.76   22.42
  -3 -11  -5  340.29   22.97
  -3 -11  -4  242.84   19.22
  -3 -11  -3    6.01    3.48
  -3 -11  -2   82.05   11.30
  -3 -11  -1   76.11   10.72
  -3 -11   0   13.65    4.73
  -3 -11   1   18.71    6.00
  -3 -10 -10   53.32    9.50
  -3 -10  -9   58.42    9.62
  -3 -10  -8   47.17    8.55
  -3 -10  -7  166.09   15.79
  -3 -10  -7  172.19   15.83
  -3 -10  -6   13.04    4.28
  -3 -10  -6    5.43    2.86
  -3 -10  -5  112.04   12.19
  -3 -10  -5  124.45   13.03
  -3 -10  -4  556.54   28.57
  -3 -10  -4  542.55   28.16
  -3 -10  -3  243.96   18.31
  -3 -10  -2    0.38    1.35
  -3 -10  -1    2.85    2.56
  -3 -10   0   89.97   11.25
  -3 -10   1    0.12    2.12
  -3  -9 -11    0.93    1.99
  -3  -9 -10    4.46    2.93
  -3  -9  -9    3.60    2.79
  -3  -9  -8    2.36    1.70
  -3  -9  -7   53.25    8.47
  -3  -9  -6  503.33   26.15
  -3  -9  -6  443.32   24.88
  -3  -9  -5    9.16    3.20
  -3  -9  -5    9.90    3.73
  -3  -9  -4   53.17    7.85
  -3  -9  -4   33.07    6.29
  -3  -9  -3  338.40   20.55
  -3  -9  -2  358.91   21.33
  -3  -9  -1   16.52    4.40
  -3  -9   0    1.12    2.26
  -3  -9   1   20.54    5.50
  -3  -8 -12  128.52   15.29
  -3  -8 -11   60.82   10.15
  -3  -8 -10   13.74    4.91
  -3  -8  -9    2.25    2.57
  -3  -8  -8   12.18    4.30
  -3  -8  -7    1.50    2.06
  -3  -8  -6  103.27   10.90
  -3  -8  -5  596.76   27.30
  -3  -8  -5  575.77   27.19
  -3  -8  -4   41.83    7.24
  -3  -8  -4   39.65    6.54
  -3  -8  -3   88.32    9.59
  -3  -8  -3   89.40    9.53
  -3  -8  -2  536.12   25.18
  -3  -8  -1  196.56   14.77
  -3  -8   0    9.14    3.29
  -3  -8   1  128.33   12.49
  -3  -7 -12   18.62    5.72
  -3  -7 -11   72.69   10.78
  -3  -7 -10   93.31   11.77
  -3  -7  -9    1.94    2.26
  -3  -7  -8  159.80   14.23
  -3  -7  -7  183.28   14.65
  -3  -7  -6    5.11    2.60
  -3  -7  -5  443.88   21.92
  -3  -7  -5  435.28   21.99
  -3  -7  -4  974.49   34.21
  -3  -7  -4  981.00   34.73
  -3  -7  -3  423.59   20.59
  -3  -7  -3  415.84   20.83
  -3  -7  -2    8.45    2.85
  -3  -7  -1  292.93   17.13
  -3  -7   0   35.39    5.84
  -3  -7   1   32.00    5.96
  -3  -6 -12   50.70    9.29
  -3  -6 -11    3.02    2.60
  -3  -6 -10   44.73    7.86
  -3  -6  -9   -0.56    1.38
  -3  -6  -8   83.90    9.93
  -3  -6  -7  306.34   12.58
  -3  -6  -7  327.72   19.29
  -3  -6  -6  796.26   30.91
  -3  -6  -5  272.95   16.25
  -3  -6  -4  263.09   15.25
  -3  -6  -4  246.62   14.62
  -3  -6  -3  975.73   32.00
  -3  -6  -3  965.92   32.61
  -3  -6  -2  488.61   21.34
  -3  -6  -2  486.78   20.96
  -3  -6  -1   79.32    8.26
  -3  -6   0   13.56    3.60
  -3  -6   1  116.61   10.49
  -3  -5 -12  256.25   21.00
  -3  -5 -11   71.26   10.19
  -3  -5 -10   10.10    3.97
  -3  -5  -9    6.05    2.62
  -3  -5  -8   42.21    6.81
  -3  -5  -7   52.49    5.40
  -3  -5  -7   53.63    7.30
  -3  -5  -6  812.02   30.04
  -3  -5  -6  773.21   22.99
  -3  -5  -5 1646.65   46.59
  -3  -5  -4  702.26   24.78
  -3  -5  -4  648.84   25.16
  -3  -5  -3   30.05    4.52
  -3  -5  -3   26.41    4.16
  -3  -5  -2  408.95   18.32
  -3  -5  -2  419.78   17.96
  -3  -5  -1   11.97    3.10
  -3  -5   0  106.07    8.86
  -3  -5   1   50.10    6.55
  -3  -4 -12   23.36    6.33
  -3  -4 -11   72.49   10.45
  -3  -4 -10   62.78    9.08
  -3  -4  -9   19.40    4.97
  -3  -4  -8  330.27   19.29
  -3  -4  -7  479.86   22.15
  -3  -4  -7  436.66   10.59
  -3  -4  -6    1.62    1.46
  -3  -4  -6    1.93    2.03
  -3  -4  -5  277.35   12.25
  -3  -4  -5  291.90   15.32
  -3  -4  -4 2740.48   64.52
  -3  -4  -3  704.50   22.81
  -3  -4  -3  688.31   23.93
  -3  -4  -2    2.30    1.72
  -3  -4  -2    1.34    1.45
  -3  -4  -1   27.50    3.99
  -3  -4   0   27.75    4.23
  -3  -3 -13  250.82   21.94
  -3  -3 -12   68.37   10.74
  -3  -3 -11   10.03    4.06
  -3  -3 -10    5.03    2.66
  -3  -3  -9    9.24    3.57
  -3  -3  -8    0.79    0.97
  -3  -3  -8    0.21    1.14
  -3  -3  -7  353.15   18.95
  -3  -3  -7  365.80   12.55
  -3  -3  -6 1159.00   36.18
  -3  -3  -5  338.12   14.81
  -3  -3  -5  325.02   16.11
  -3  -3  -4  389.40   14.91
  -3  -3  -4  412.38   16.92
  -3  -3  -4  371.76    9.09
  -3  -3  -3  665.29   20.13
  -3  -3  -3  609.08   14.72
  -3  -3  -3  670.77   21.76
  -3  -3  -3  674.98   22.73
  -3  -3  -2  308.64   12.80
  -3  -3  -2  326.99   14.82
  -3  -3  -2  329.24   13.72
  -3  -3  -2  277.62    9.91
  -3  -3  -1    3.23    1.40
  -3  -3  -1    4.01    1.65
  -3  -3  -1    3.17    1.49
  -3  -3   0   44.85    5.26
  -3  -3   0   36.44    4.56
  -3  -3   1  167.79   10.77
  -3  -3   2   89.68    7.66
  -3  -2 -12  230.01   19.90
  -3  -2 -11   48.20    8.58
  -3  -2 -10    1.83    2.14
  -3  -2  -9  196.75   15.50
  -3  -2  -8   83.42    9.63
  -3  -2  -7   24.57    4.60
  -3  -2  -6  443.58   19.71
  -3  -2  -6  432.86   16.93
  -3  -2  -5  891.43   26.68
  -3  -2  -5  846.42   27.71
  -3  -2  -4  108.75    7.77
  -3  -2  -4  114.61    8.20
  -3  -2  -4  114.60    5.54
  -3  -2  -4  120.74    8.19
  -3  -2  -3  288.68   10.74
  -3  -2  -3  277.87   12.47
  -3  -2  -3  295.67   12.53
  -3  -2  -3  292.70    9.61
  -3  -2  -3  271.30   13.06
  -3  -2  -2  924.54   24.87
  -3  -2  -2  878.36   22.32
  -3  -2  -2  942.62   23.62
  -3  -2  -2  914.74   27.56
  -3  -2  -1   32.60    3.64
  -3  -2  -1   34.65    4.47
  -3  -2  -1   22.16    2.78
  -3  -2  -1   32.78    3.60
  -3  -2   0    6.27    2.71
  -3  -2   0    4.41    2.66
  -3  -2   1   23.28    3.46
  -3  -2   1   30.10    4.21
  -3  -2   2  607.43   21.30
  -3  -2   2  635.92   20.48
  -3  -2   3  592.08   20.82
  -3  -2   4  500.02   18.70
  -3  -2   5  626.99   21.65
  -3  -1 -12    9.82    4.31
  -3  -1 -11   54.36    9.00
  -3  -1 -11   50.73    8.59
  -3  -1 -10   21.74    5.40
  -3  -1 -10   19.18    5.23
  -3  -1  -9  115.25   11.68
  -3  -1  -9  101.11   10.44
  -3  -1  -8   85.65    9.38
  -3  -1  -8   82.21    8.76
  -3  -1  -8   90.67    6.71
  -3  -1  -7  825.03   28.98
  -3  -1  -7  811.93   24.76
  -3  -1  -7  825.30   30.42
  -3  -1  -6   43.60    5.69
  -3  -1  -6   49.56    5.58
  -3  -1  -6   45.04    4.84
  -3  -1  -5  893.21   28.05
  -3  -1  -5  875.78   26.35
  -3  -1  -4 1204.46   32.38
  -3  -1  -4 1205.21   32.73
  -3  -1  -3  432.44   11.92
  -3  -1  -3  411.67   14.90
  -3  -1  -3  424.40   16.87
  -3  -1  -3  438.77   14.31
  -3  -1  -2   73.04    3.94
  -3  -1  -2   74.12    6.18
  -3  -1  -2   68.63    4.81
  -3  -1  -2   63.00    4.77
  -3  -1  -1 1037.31   26.68
  -3  -1  -1 1036.15   24.96
  -3  -1   0   52.12    6.63
  -3  -1   1   34.93    4.18
  -3  -1   2  573.53   20.53
  -3  -1   2  520.20   17.32
  -3  -1   3  974.99   27.97
  -3  -1   3  985.25   31.04
  -3  -1   3  912.55   27.81
  -3  -1   4  253.95   12.56
  -3  -1   5    5.33    1.97
  -3  -1   6  647.31   21.61
  -3  -1   7  314.89   13.57
  -3   0 -13   98.23   13.48
  -3   0 -12   48.02    9.12
  -3   0 -12   64.97   10.27
  -3   0 -11    5.47    2.51
  -3   0 -11    9.50    3.76
  -3   0 -10   21.15    5.40
  -3   0 -10   10.44    3.80
  -3   0  -9   15.88    4.47
  -3   0  -9   22.37    4.92
  -3   0  -8   39.29    4.30
  -3   0  -8   47.72    6.56
  -3   0  -8   44.20    6.73
  -3   0  -7  506.59   22.83
  -3   0  -7  509.61   21.67
  -3   0  -7  525.96   18.55
  -3   0  -6 1087.60   32.24
  -3   0  -6 1090.33   34.07
  -3   0  -5  114.98    8.91
  -3   0  -5  104.70    7.78
  -3   0  -4  410.11   14.11
  -3   0  -4  406.78   15.60
  -3   0  -3 1066.91   27.08
  -3   0  -2  728.96   18.53
  -3   0  -2  712.62   23.29
  -3   0  -2  723.78   21.57
  -3   0  -1  147.75    5.67
  -3   0  -1  130.83    7.89
  -3   0   0  107.95    7.36
  -3   0   1  511.85   13.96
  -3   0   1  501.57   18.12
  -3   0   2   87.28    7.70
  -3   0   2  107.60    6.34
  -3   0   3  194.92   10.15
  -3   0   3  211.17   12.35
  -3   0   4 1356.22   40.16
  -3   0   5  738.40   28.65
  -3   0   6   13.70    2.79
  -3   0   7  195.10   10.51
  -3   0   8   83.90    6.52
  -3   1 -12   77.33   11.38
  -3   1 -12   83.38   12.08
  -3   1 -11   35.32    7.25
  -3   1 -10    1.66    1.54
  -3   1  -9   34.62    6.34
  -3   1  -8   77.33    8.69
  -3   1  -7   67.54    7.30
  -3   1  -6  886.34   28.64
  -3   1  -5 1060.96   30.22
  -3   1  -4  858.01   22.98
  -3   1  -4  771.84   16.65
  -3   1  -3  185.43    8.59
  -3   1  -3  181.26    7.59
  -3   1  -2  564.88   13.51
  -3   1  -2  596.79   15.25
  -3   1  -2  600.67   20.32
  -3   1  -1   93.02    7.42
  -3   1  -1  106.23    3.62
  -3   1   0    6.29    2.02
  -3   1   1  994.86   29.28
  -3   1   1  991.05   22.73
  -3   1   2  966.88   24.66
  -3   1   2  947.46   29.26
  -3   1   3  429.03   18.92
  -3   1   3  450.66   16.40
  -3   1   4   60.41    6.76
  -3   1   4   59.23    6.04
  -3   1   5  950.86   33.52
  -3   1   6  342.64   19.21
  -3   1   8   37.27    4.45
  -3   2 -12   16.26    5.26
  -3   2 -11   20.43    5.65
  -3   2 -10   14.39    4.42
  -3   2  -9    6.36    2.89
  -3   2  -8  265.59   17.01
  -3   2  -7  367.03   18.84
  -3   2  -6    7.47    1.65
  -3   2  -6    6.74    2.30
  -3   2  -5  391.10   11.88
  -3   2  -5  394.15   16.92
  -3   2  -4 2103.73   46.87
  -3   2  -4 1960.18   38.88
  -3   2  -3  290.79   11.08
  -3   2  -2   54.47    3.69
  -3   2  -1    6.91    1.09
  -3   2  -1    9.61    2.52
  -3   2   0   24.51    4.02
  -3   2   1    1.42    0.66
  -3   2   1    1.85    1.28
  -3   2   2  749.35   26.37
  -3   2   2  777.28   21.50
  -3   2   3 1287.45   38.05
  -3   2   3 1325.56   34.29
  -3   2   4  509.09   21.78
  -3   2   4  519.80   19.72
  -3   2   5   25.15    4.88
  -3   2   6  436.90   21.98
  -3   2   7  247.57   16.93
  -3   2   8   77.17    9.93
  -3   3 -11   -1.19    2.11
  -3   3 -10    6.03    3.11
  -3   3  -9   15.74    4.41
  -3   3  -8   39.62    6.77
  -3   3  -7  279.42   16.95
  -3   3  -6  698.33   26.85
  -3   3  -5  140.30    6.74
  -3   3  -5  134.26    9.62
  -3   3  -4   69.80    6.26
  -3   3  -3  437.77   15.82
  -3   3  -2   88.85    5.72
  -3   3  -1   38.33    5.20
  -3   3  -1   31.22    3.06
  -3   3   0  137.91   10.04
  -3   3   1  290.77   15.32
  -3   3   2   80.15    5.94
  -3   3   2   88.69    8.13
  -3   3   3  429.11   16.57
  -3   3   3  438.71   19.83
  -3   3   4 1800.53   49.64
  -3   3   5  457.86   21.83
  -3   3   6   30.12    5.57
  -3   3   7   56.09    7.95
  -3   3   8   18.11    4.85
  -3   3   9   43.07    7.78
  -3   4 -10   38.14    7.68
  -3   4  -9   69.78    9.79
  -3   4  -8  156.78   14.07
  -3   4  -7    6.34    2.64
  -3   4  -6  259.65   15.68
  -3   4  -5  542.89   22.30
  -3   4  -4  172.58   10.91
  -3   4  -3   29.79    4.06
  -3   4  -2  108.07    7.31
  -3   4  -1   27.10    4.78
  -3   4  -1   24.66    2.37
  -3   4   0   28.23    2.07
  -3   4   0   38.35    5.74
  -3   4   1   96.30    8.84
  -3   4   2  574.27   23.88
  -3   4   3  123.92   10.67
  -3   4   3  134.29    9.10
  -3   4   4  253.67   15.50
  -3   4   5  309.91   18.01
  -3   4   6  549.57   25.43
  -3   4   7   54.36    7.92
  -3   4   8   10.28    3.72
  -3   4   9   44.80    7.86
  -3   5  -9   77.57   10.62
  -3   5  -8  169.29   15.33
  -3   5  -7  268.18   17.95
  -3   5  -6   25.90    5.12
  -3   5  -5  227.80   14.64
  -3   5  -4  415.89   19.04
  -3   5  -3  179.40   11.17
  -3   5  -2    5.67    1.67
  -3   5  -2    8.48    2.31
  -3   5  -1    1.27    0.92
  -3   5   0   25.94    5.06
  -3   5   0   13.60    2.48
  -3   5   1   13.96    3.81
  -3   5   1   10.55    1.62
  -3   5   2  532.60   23.86
  -3   5   3  674.52   27.77
  -3   5   4  196.31   14.23
  -3   5   5   47.35    6.89
  -3   5   6  178.20   14.17
  -3   5   7   85.61   10.13
  -3   5   8    7.09    3.50
  -3   5   9   37.21    7.52
  -3   5  10   84.86   11.35
  -3   6  -8   27.80    6.29
  -3   6  -7  193.29   15.80
  -3   6  -6  356.99   20.87
  -3   6  -5   59.41    7.77
  -3   6  -4  124.67   10.54
  -3   6  -3  188.58   12.52
  -3   6  -2   98.66    8.53
  -3   6  -1   63.04    5.23
  -3   6   0  224.19   15.66
  -3   6   0  213.77    9.47
  -3   6   1  233.85    9.92
  -3   6   1  274.51   17.28
  -3   6   2   17.38    4.55
  -3   6   2   14.48    2.42
  -3   6   3  324.99   19.19
  -3   6   4  664.10   28.79
  -3   6   5  205.95   15.51
  -3   6   6    2.91    2.02
  -3   6   7   16.25    4.80
  -3   6   8   32.87    6.48
  -3   6   9    0.87    1.77
  -3   6  10   97.37   12.48
  -3   6  11   94.34   12.58
  -3   7  -7   14.19    4.31
  -3   7  -6  261.25   18.62
  -3   7  -5  368.05   21.21
  -3   7  -4   14.68    4.07
  -3   7  -3   40.04    6.11
  -3   7  -2  144.89   11.31
  -3   7   0   29.92    5.80
  -3   7   1  435.83   23.69
  -3   7   2  378.15   21.69
  -3   7   3   56.79    8.23
  -3   7   4   34.17    6.54
  -3   7   5  324.73   20.52
  -3   7   6   93.77   10.88
  -3   7   7    5.11    3.19
  -3   7   8    9.10    3.73
  -3   7   9   63.82    9.64
  -3   7  10   16.53    5.28
  -3   7  11   50.98    9.27
  -3   7  12  182.29   18.42
  -3   8  -5   86.42   10.52
  -3   8  -4  284.47   18.58
  -3   8  -3   79.48    9.29
  -3   8  -2   29.79    5.51
  -3   8  -1    6.73    3.02
  -3   8  -1   11.80    4.24
  -3   8   0   37.79    7.20
  -3   8   1   43.70    7.64
  -3   8   2  369.10   22.59
  -3   8   3  354.10   22.22
  -3   8   4  120.72   12.75
  -3   8   5   45.17    7.75
  -3   8   6   77.55   10.46
  -3   8   7   50.09    8.27
  -3   8   8   42.77    8.01
  -3   8   9   57.20    9.38
  -3   8  10   61.50   10.10
  -3   8  11   11.12    4.70
  -3   9  -3   56.10    8.30
  -3   9  -2   19.39    4.80
  -3   9  -1   46.14    7.13
  -3   9  -1   38.11    7.97
  -3   9   0  146.48   14.98
  -3   9   1   95.60   12.05
  -3   9   2    1.21    1.95
  -3   9   3  144.34   14.61
  -3   9   4  273.63   20.26
  -3   9   5  218.55   18.19
  -3   9   6    9.93    4.13
  -3   9   7    4.43    3.38
  -3   9   8    2.89    3.30
  -3   9   9   31.26    7.29
  -3   9  10   71.76   11.12
  -3   9  11  178.83   18.09
  -3  10  -1    0.80    1.62
  -3  10  -1    0.86    1.49
  -3  10   0   38.91    7.99
  -3  10   1   68.04   10.65
  -3  10   2  250.49   20.37
  -3  10   3   17.56    5.36
  -3  10   4   72.44   10.95
  -3  10   5  103.68   13.05
  -3  10   6   74.95   10.99
  -3  10   7   22.06    6.01
  -3  10   8   40.60    8.42
  -3  10   9   26.06    7.20
  -3  10  10   -4.73    4.19
  -3  11   1   15.23    5.37
  -3  11   2  136.20   15.54
  -3  11   3  203.32   19.16
  -3  11   4   36.07    8.02
  -3  11   5    6.13    3.70
  -3  11   6   16.20    5.36
  -3  11   7    8.65    4.14
  -3  11   8   14.78    5.29
  -2 -13  -7   96.12   13.29
  -2 -13  -5    5.96    3.76
  -2 -13  -4    0.56    2.16
  -2 -13  -3    6.54    3.34
  -2 -13  -2   61.83   10.54
  -2 -13  -1   78.46   11.89
  -2 -12  -9   84.23   12.23
  -2 -12  -8   12.78    4.86
  -2 -12  -8    8.34    4.29
  -2 -12  -7   91.29   12.59
  -2 -12  -7  128.43   14.52
  -2 -12  -6  192.83   17.55
  -2 -12  -6  141.69   15.41
  -2 -12  -5   70.55   10.59
  -2 -12  -4   12.19    4.65
  -2 -12  -3   31.47    7.12
  -2 -12  -2   10.39    4.01
  -2 -12  -1    7.12    3.94
  -2 -12   0  148.49   15.73
  -2 -12   1  181.35   18.11
  -2 -11 -10   36.03    7.93
  -2 -11  -9  265.89   21.15
  -2 -11  -8   87.22   11.61
  -2 -11  -7    9.44    3.85
  -2 -11  -7   10.05    4.24
  -2 -11  -6   19.55    5.33
  -2 -11  -6   25.15    6.32
  -2 -11  -5   68.63   10.11
  -2 -11  -5   70.15    9.91
  -2 -11  -4   33.73    7.06
  -2 -11  -3   27.74    6.37
  -2 -11  -2  175.65   15.98
  -2 -11  -1   87.33   11.43
  -2 -11   0    2.77    2.79
  -2 -11   1  125.44   14.13
  -2 -10 -11   72.52   11.50
  -2 -10 -10   12.64    4.87
  -2 -10  -9   43.69    8.21
  -2 -10  -8  187.70   16.72
  -2 -10  -7  244.87   18.65
  -2 -10  -6   47.41    7.93
  -2 -10  -6   52.06    8.47
  -2 -10  -5   18.87    5.31
  -2 -10  -5   13.56    4.41
  -2 -10  -4    5.31    2.65
  -2 -10  -4    8.90    3.63
  -2 -10  -3    0.11    1.20
  -2 -10  -2   41.86    7.29
  -2 -10  -1  188.42   15.89
  -2 -10   0  210.64   16.90
  -2 -10   1   10.55    4.10
  -2 -10   2  184.99   17.10
  -2  -9 -11  112.57   13.95
  -2  -9 -10  310.72   22.67
  -2  -9  -9  177.57   16.28
  -2  -9  -8    5.10    2.55
  -2  -9  -7  186.29   15.44
  -2  -9  -6  391.96   22.42
  -2  -9  -5    4.87    2.47
  -2  -9  -5    1.38    1.67
  -2  -9  -4   68.17    8.83
  -2  -9  -4   72.02    9.01
  -2  -9  -3   10.02    3.38
  -2  -9  -3   12.68    3.59
  -2  -9  -2   13.08    3.99
  -2  -9  -1   95.43   10.43
  -2  -9   0  342.02   20.71
  -2  -9   1  421.38   23.82
  -2  -9   2   91.36   11.39
  -2  -8 -12   24.93    7.44
  -2  -8 -11    8.77    4.11
  -2  -8 -10   49.92    8.68
  -2  -8  -9  424.02   25.13
  -2  -8  -8  339.64   21.34
  -2  -8  -7   56.39    8.01
  -2  -8  -6  120.02   11.51
  -2  -8  -5   30.70    5.64
  -2  -8  -4  366.13   19.97
  -2  -8  -4  375.88   20.45
  -2  -8  -3   44.43    6.48
  -2  -8  -3   37.67    6.03
  -2  -8  -2  271.01   16.64
  -2  -8  -1  399.30   20.91
  -2  -8   0    1.56    1.94
  -2  -8   1  392.47   21.54
  -2  -8   2  545.45   27.25
  -2  -7 -12   61.04   10.20
  -2  -7 -11  119.90   13.80
  -2  -7 -10   58.19    9.19
  -2  -7  -9   83.08   10.39
  -2  -7  -8  334.41   20.55
  -2  -7  -7  282.61   18.10
  -2  -7  -6  109.55   10.60
  -2  -7  -5    8.00    3.09
  -2  -7  -4   11.61    3.12
  -2  -7  -3    8.65    3.20
  -2  -7  -3    2.96    1.48
  -2  -7  -2  119.61   10.09
  -2  -7  -2   98.05    9.26
  -2  -7  -1  848.46   30.66
  -2  -7   0  982.03   34.07
  -2  -7   1  103.72    9.92
  -2  -7   2   67.39    8.60
  -2  -6 -12    0.55    1.74
  -2  -6 -11   82.82   11.25
  -2  -6 -10  258.79   19.07
  -2  -6  -9  220.99   16.80
  -2  -6  -8   22.14    3.23
  -2  -6  -8   31.67    6.05
  -2  -6  -7  283.81   10.91
  -2  -6  -7  257.06   16.70
  -2  -6  -6  451.90   12.49
  -2  -6  -6  448.38   21.61
  -2  -6  -5  223.37   14.09
  -2  -6  -4   53.25    6.34
  -2  -6  -3  284.97   15.30
  -2  -6  -3  297.28   15.67
  -2  -6  -2   96.26    8.51
  -2  -6  -2  100.49    8.58
  -2  -6  -1  231.21   13.48
  -2  -6   0  662.44   25.09
  -2  -6   1  852.40   30.17
  -2  -6   2  207.77   14.45
  -2  -5 -13   89.00   12.84
  -2  -5 -12    8.37    4.10
  -2  -5 -11   20.27    5.46
  -2  -5 -10   73.44    9.95
  -2  -5  -9  370.44   21.78
  -2  -5  -8  304.10   18.56
  -2  -5  -8  301.27   10.90
  -2  -5  -7   13.30    1.68
  -2  -5  -7   17.74    4.23
  -2  -5  -6   61.16    4.66
  -2  -5  -6   55.94    6.95
  -2  -5  -5   37.51    3.00
  -2  -5  -5   39.49    5.41
  -2  -5  -4   62.40    6.65
  -2  -5  -3  130.16    9.25
  -2  -5  -2  924.05   28.64
  -2  -5  -2  950.35   29.17
  -2  -5  -1  174.66   10.71
  -2  -5   0  203.45   11.95
  -2  -5   1  767.95   26.83
  -2  -4 -13   29.00    7.53
  -2  -4 -12   78.90   11.48
  -2  -4 -11  180.28   16.71
  -2  -4 -10  128.98   13.17
  -2  -4  -9  105.08   11.19
  -2  -4  -8  541.64   17.14
  -2  -4  -8  533.13   25.15
  -2  -4  -7  306.92   10.59
  -2  -4  -7  318.38   17.58
  -2  -4  -6   58.79    3.30
  -2  -4  -6   54.34    6.59
  -2  -4  -5   -0.03    0.39
  -2  -4  -5    0.03    1.00
  -2  -4  -4    8.87    1.47
  -2  -4  -4    7.41    2.34
  -2  -4  -3   84.76    6.98
  -2  -4  -2   20.62    3.20
  -2  -4  -2   25.41    3.68
  -2  -4  -1  408.63   15.96
  -2  -4  -1  392.34   15.49
  -2  -4   0  244.27   12.17
  -2  -4   1   10.11    2.52
  -2  -3 -13    3.53    2.70
  -2  -3 -12    1.60    1.50
  -2  -3 -11  221.36   18.53
  -2  -3 -10  682.79   32.12
  -2  -3  -9  179.56   14.63
  -2  -3  -8    3.36    1.41
  -2  -3  -8    1.05    1.07
  -2  -3  -7  229.08    9.93
  -2  -3  -7  238.64   14.87
  -2  -3  -6  313.27   10.49
  -2  -3  -6  328.80   16.67
  -2  -3  -5  588.02   14.00
  -2  -3  -5  648.36   22.65
  -2  -3  -4    3.22    1.07
  -2  -3  -4    2.61    1.40
  -2  -3  -3  461.33   13.67
  -2  -3  -3  460.17   16.80
  -2  -3  -2    8.46    2.00
  -2  -3  -2    7.68    1.96
  -2  -3  -1  160.01    8.54
  -2  -3  -1  160.58    8.36
  -2  -3   0 1054.47   28.29
  -2  -3   1  536.52   19.31
  -2  -2 -13   16.93    5.80
  -2  -2 -12   61.77   10.27
  -2  -2 -11    5.96    3.02
  -2  -2 -10  367.49   22.44
  -2  -2 -10  356.61   22.41
  -2  -2  -9  109.00   11.08
  -2  -2  -9  108.91   11.28
  -2  -2  -8 1257.96   41.54
  -2  -2  -8 1239.02   40.64
  -2  -2  -7    6.23    2.59
  -2  -2  -6   59.85    6.66
  -2  -2  -5    5.02    1.94
  -2  -2  -4  115.85    7.08
  -2  -2  -4  118.69    7.86
  -2  -2  -4  110.48    6.72
  -2  -2  -3  899.73   23.10
  -2  -2  -3  886.07   24.52
  -2  -2  -3  880.49   18.22
  -2  -2  -3  875.73   23.92
  -2  -2  -2 1766.79   38.71
  -2  -2  -2 1756.72   38.71
  -2  -2  -2 1792.07   34.52
  -2  -2  -2 1760.95   40.04
  -2  -2  -2 1794.01   41.03
  -2  -2  -1  246.54    9.81
  -2  -2  -1  255.02   10.77
  -2  -2  -1  262.94    8.27
  -2  -2  -1  249.22    9.51
  -2  -2   0    9.70    1.90
  -2  -2   0    8.52    1.93
  -2  -2   1  953.15   25.55
  -2  -2   2 1486.65   36.07
  -2  -2   2 1539.99   37.20
  -2  -2   3  432.01   17.06
  -2  -1 -13   24.09    6.91
  -2  -1 -12   77.95   11.31
  -2  -1 -12   77.41   11.45
  -2  -1 -11  212.54   17.84
  -2  -1 -11  235.36   19.15
  -2  -1 -10  101.65   11.48
  -2  -1 -10  108.46   12.11
  -2  -1  -9   99.95   10.61
  -2  -1  -9   83.69    9.92
  -2  -1  -8  469.97   22.52
  -2  -1  -7  302.53   16.37
  -2  -1  -7  313.47   17.15
  -2  -1  -6   50.78    6.12
  -2  -1  -6   51.02    5.74
  -2  -1  -6   42.50    3.73
  -2  -1  -5   19.14    2.55
  -2  -1  -5   15.08    2.72
  -2  -1  -5   19.11    3.44
  -2  -1  -4    9.77    2.17
  -2  -1  -4   11.47    2.27
  -2  -1  -4   12.84    2.12
  -2  -1  -3  318.87   12.44
  -2  -1  -3  295.56   11.75
  -2  -1  -3  310.73   11.58
  -2  -1  -2  783.14   18.01
  -2  -1  -2  775.89   20.89
  -2  -1  -2  741.91   19.74
  -2  -1  -2  741.05   20.89
  -2  -1  -2  787.44   18.16
  -2  -1  -1  950.44   22.07
  -2  -1  -1  982.73   22.40
  -2  -1  -1  948.36   21.52
  -2  -1   0 2651.09   54.22
  -2  -1   1  420.25   14.07
  -2  -1   1  417.32   14.26
  -2  -1   1  419.72   12.69
  -2  -1   2   26.65    3.19
  -2  -1   2   25.16    3.04
  -2  -1   2   28.98    3.73
  -2  -1   3  334.43   13.80
  -2  -1   3  340.10   12.48
  -2  -1   4   48.46    4.16
  -2  -1   5  568.42   17.10
  -2   0 -13   55.23   10.30
  -2   0 -12   14.58    5.08
  -2   0 -11  116.82   13.32
  -2   0 -10  308.15   20.56
  -2   0  -9  223.84   16.17
  -2   0  -8   11.78    3.66
  -2   0  -7  133.89   10.62
  -2   0  -7  127.90    6.38
  -2   0  -6  283.72   14.48
  -2   0  -6  267.99   10.30
  -2   0  -5  227.57   11.64
  -2   0  -4  368.45   13.76
  -2   0  -3  165.94    7.40
  -2   0  -3  171.21    8.19
  -2   0  -2    1.94    0.95
  -2   0  -2    3.73    1.06
  -2   0  -2    3.10    0.72
  -2   0  -1   47.71    2.71
  -2   0  -1   38.04    3.71
  -2   0  -1   46.77    3.67
  -2   0   0 9418.96  176.48
  -2   0   1    1.03    0.71
  -2   0   1    2.01    0.70
  -2   0   2 1004.20   27.18
  -2   0   2  975.17   24.75
  -2   0   3  219.63   10.53
  -2   0   3  240.07   11.91
  -2   0   4   -0.65    0.79
  -2   0   4    0.96    1.43
  -2   0   6  181.42    8.27
  -2   0   7  345.48   11.67
  -2   1 -12   86.79   12.20
  -2   1 -11   25.00    6.15
  -2   1 -10   99.91   11.54
  -2   1  -9  312.25   19.64
  -2   1  -8  250.10   15.97
  -2   1  -8  165.41    7.27
  -2   1  -7   19.07    4.05
  -2   1  -6    6.79    2.50
  -2   1  -5   29.21    4.24
  -2   1  -4    6.16    1.82
  -2   1  -3  869.63   22.62
  -2   1  -2 1097.97   31.63
  -2   1  -2 1335.91   27.64
  -2   1  -1  344.93    8.63
  -2   1  -1  373.57   13.45
  -2   1  -1  335.08   12.52
  -2   1  -1  331.80    8.31
  -2   1   0    4.85    1.52
  -2   1   0    0.53    0.33
  -2   1   1   70.19    5.49
  -2   1   1   69.96    3.88
  -2   1   2  630.76   17.79
  -2   1   2  619.70   19.95
  -2   1   3  612.77   20.77
  -2   1   3  601.75   19.18
  -2   1   4  127.10    8.55
  -2   1   4  126.48    9.10
  -2   1   5  106.52    8.89
  -2   1   6   30.39    5.20
  -2   1   8  609.91   17.15
  -2   2 -12  123.43   15.00
  -2   2 -11  157.22   15.93
  -2   2 -10   43.86    7.93
  -2   2  -9   54.35    8.25
  -2   2  -8  312.09   19.09
  -2   2  -7  201.27   14.26
  -2   2  -6  124.19   10.20
  -2   2  -5  165.56   10.62
  -2   2  -5  160.76    8.61
  -2   2  -4   50.97    5.21
  -2   2  -4   59.41    4.22
  -2   2  -3   89.66    6.15
  -2   2  -3  101.34    4.73
  -2   2  -2  155.28    9.48
  -2   2  -2  176.97    7.69
  -2   2  -1  380.03   14.67
  -2   2   0  146.00    8.13
  -2   2   0  142.08    8.33
  -2   2   1   82.05    6.34
  -2   2   2  116.76    7.85
  -2   2   2  107.39    6.25
  -2   2   3   33.62    4.24
  -2   2   3   23.24    3.25
  -2   2   4    2.57    1.52
  -2   2   4    0.17    0.96
  -2   2   5  101.44    8.68
  -2   2   6  422.09   19.90
  -2   2   7  151.43   12.19
  -2   3 -11  135.87   15.14
  -2   3 -10  232.27   18.98
  -2   3  -9  247.59   18.42
  -2   3  -8   40.95    7.16
  -2   3  -7   33.48    5.77
  -2   3  -6  182.54   12.72
  -2   3  -6  178.93   10.23
  -2   3  -5  156.08   10.84
  -2   3  -5  155.29    8.70
  -2   3  -4  452.48   14.90
  -2   3  -4  478.27   18.75
  -2   3  -3  527.29   15.12
  -2   3  -3  502.81   17.88
  -2   3  -2   77.86    5.70
  -2   3  -1  161.47    9.60
  -2   3   0  685.31   16.03
  -2   3   0  716.90   21.79
  -2   3   0  659.59   22.47
  -2   3   1  162.77    9.81
  -2   3   1  151.44    5.64
  -2   3   2    1.96    1.35
  -2   3   3  170.65   10.45
  -2   3   3  160.89    9.28
  -2   3   4   57.94    5.83
  -2   3   4   51.54    5.83
  -2   3   5  234.13   13.69
  -2   3   6  134.18   10.76
  -2   3   7  351.10   19.03
  -2   3   8  220.33   15.53
  -2   4 -11    2.52    3.07
  -2   4 -10  109.00   13.23
  -2   4  -9  249.88   19.43
  -2   4  -8   95.63   11.04
  -2   4  -7   38.76    6.55
  -2   4  -6    7.15    3.09
  -2   4  -5    7.61    2.53
  -2   4  -5    6.17    1.76
  -2   4  -4   31.69    4.74
  -2   4  -4   42.40    4.28
  -2   4  -3  475.21   18.60
  -2   4  -2  935.91   27.28
  -2   4  -1  228.39    9.39
  -2   4   0   39.38    4.61
  -2   4   0   47.77    3.59
  -2   4   1  512.12   14.40
  -2   4   1  514.25   20.15
  -2   4   2  500.96   14.98
  -2   4   2  484.36   19.74
  -2   4   3  183.22   11.50
  -2   4   4  212.23   12.84
  -2   4   5  175.25   11.88
  -2   4   6    4.21    2.12
  -2   4   7  160.20   12.49
  -2   4   8  572.13   26.32
  -2   4   9  300.95   19.47
  -2   5 -10   32.31    7.47
  -2   5  -9   24.68    6.12
  -2   5  -8  107.74   12.11
  -2   5  -7   93.38   10.54
  -2   5  -6   39.20    6.48
  -2   5  -5   25.38    4.98
  -2   5  -4   83.75    6.87
  -2   5  -4   71.18    7.67
  -2   5  -3   11.35    2.88
  -2   5  -2  523.90   20.29
  -2   5  -1 1007.86   27.32
  -2   5   0   89.00    5.84
  -2   5   1  107.78    6.34
  -2   5   1  111.86    8.08
  -2   5   1  111.31    9.27
  -2   5   2  149.06    7.83
  -2   5   2  142.32   10.50
  -2   5   3   51.14    4.82
  -2   5   3   48.74    6.17
  -2   5   4  168.66   11.86
  -2   5   5  396.98   19.37
  -2   5   6  687.38   27.47
  -2   5   7  210.86   14.62
  -2   5   8    6.69    3.31
  -2   5   9  205.81   15.82
  -2   5  10  185.95   15.83
  -2   6 -10  146.90   16.79
  -2   6  -9   73.79   10.87
  -2   6  -8    7.76    3.77
  -2   6  -7   26.97    5.95
  -2   6  -6   19.62    4.93
  -2   6  -5    7.05    3.00
  -2   6  -4  662.41   27.08
  -2   6  -3   32.82    5.32
  -2   6  -2   35.55    5.17
  -2   6  -1  245.59   12.11
  -2   6   0  790.97   23.73
  -2   6   1  567.58   24.18
  -2   6   1  578.14   18.97
  -2   6   2   66.79    5.65
  -2   6   2   69.38    7.72
  -2   6   3    9.45    2.88
  -2   6   3    9.05    2.35
  -2   6   4   65.43    7.80
  -2   6   5    4.76    2.32
  -2   6   6  232.45   15.37
  -2   6   7  417.40   21.78
  -2   6   8  251.36   16.93
  -2   6   9   -1.10    2.20
  -2   6  10   55.03    8.37
  -2   7  -9  118.49   14.55
  -2   7  -8   51.49    9.29
  -2   7  -7   33.34    6.89
  -2   7  -6    8.68    3.58
  -2   7  -5   17.67    4.51
  -2   7  -4   31.81    5.76
  -2   7  -3  185.39   13.73
  -2   7  -2  542.03   23.83
  -2   7   1  155.09   12.59
  -2   7   1  167.72   10.04
  -2   7   2   93.89    7.42
  -2   7   2   95.32    9.68
  -2   7   3   53.89    7.21
  -2   7   4  292.25   17.73
  -2   7   5  172.15   13.39
  -2   7   6   21.54    4.82
  -2   7   7   80.11    9.31
  -2   7   8  289.94   18.84
  -2   7   9  242.27   17.69
  -2   7  10    1.52    2.14
  -2   7  11    0.16    1.68
  -2   8  -8  105.92   13.57
  -2   8  -7   22.02    5.90
  -2   8  -6   40.61    7.72
  -2   8  -5  126.11   12.90
  -2   8  -4   91.11   10.48
  -2   8  -3    2.27    2.12
  -2   8  -2  139.71   12.28
  -2   8   1    4.04    2.43
  -2   8   2    5.65    2.80
  -2   8   3   13.55    3.91
  -2   8   4   86.74    9.87
  -2   8   5    5.97    2.75
  -2   8   6  543.78   26.52
  -2   8   7   55.32    8.11
  -2   8   8   18.69    5.04
  -2   8   9  148.53   13.99
  -2   8  10  112.95   12.55
  -2   8  11   43.58    7.96
  -2   9  -7    0.10    2.52
  -2   9  -6   21.15    5.91
  -2   9  -5   50.92    8.67
  -2   9  -4  157.55   14.69
  -2   9  -3  254.30   18.55
  -2   9  -2   28.07    5.84
  -2   9   1  149.23   14.03
  -2   9   2    6.86    3.50
  -2   9   3    6.74    3.20
  -2   9   4    9.86    3.58
  -2   9   5   20.25    5.09
  -2   9   6  170.18   14.77
  -2   9   7  168.17   14.86
  -2   9   8   54.67    8.60
  -2   9   9   -0.91    1.58
  -2   9  10   39.94    7.63
  -2  10  -5    4.49    3.38
  -2  10  -4    7.50    3.04
  -2  10  -3  129.46   13.74
  -2  10  -2  261.24   19.33
  -2  10  -1   47.08    7.84
  -2  10   1   50.88    8.78
  -2  10   2   52.36    8.55
  -2  10   3   18.08    5.00
  -2  10   4   81.52   10.61
  -2  10   5  101.25   11.91
  -2  10   6    1.11    1.63
  -2  10   7   76.70   10.32
  -2  10   8  182.83   16.17
  -2  10   9  149.47   14.77
  -2  11  -4   10.43    4.66
  -2  11  -3    4.75    3.68
  -2  11  -2  117.24   13.49
  -2  11  -1  183.41   16.88
  -2  11   0   70.05   10.85
  -2  11   1    0.35    1.98
  -2  11   2   15.91    5.01
  -2  11   3    1.21    1.99
  -2  11   4   32.86    7.01
  -2  11   5  119.66   13.67
  -2  11   6  184.36   16.89
  -2  11   7   72.97   10.63
  -2  11   8   -2.07    2.07
  -2  12  -1   39.16    8.32
  -2  12   0  120.52   14.17
  -2  12   1   48.24    9.54
  -2  12   2   25.28    7.01
  -2  12   3    7.57    3.29
  -2  12   4    8.44    4.11
  -2  12   5    3.07    2.73
  -2  12   6   74.53   11.16
  -2  12   7  124.47   14.51
  -1 -13  -8    0.41    1.68
  -1 -13  -7    0.25    2.00
  -1 -13  -5   39.51    8.39
  -1 -13  -4  244.94   20.77
  -1 -13  -3   62.98   10.36
  -1 -13  -2    6.15    3.95
  -1 -13  -1   91.21   12.74
  -1 -13   0  129.75   15.24
  -1 -12  -9   16.27    5.40
  -1 -12  -8   22.39    5.90
  -1 -12  -7   18.51    5.71
  -1 -12  -7    7.40    3.58
  -1 -12  -6   22.38    6.35
  -1 -12  -6   20.93    6.02
  -1 -12  -5    4.35    3.39
  -1 -12  -4  104.43   12.74
  -1 -12  -3  199.51   17.70
  -1 -12  -2  160.47   15.95
  -1 -12  -1    1.13    2.64
  -1 -12   0   28.69    6.78
  -1 -12   1   31.64    7.41
  -1 -11 -10   -0.26    1.99
  -1 -11  -9   20.06    5.64
  -1 -11  -8   53.39    8.92
  -1 -11  -7   58.64    9.15
  -1 -11  -6  142.54   14.95
  -1 -11  -6  133.30   13.72
  -1 -11  -5  218.27   18.17
  -1 -11  -5  221.73   17.41
  -1 -11  -4   65.78    9.55
  -1 -11  -3   44.73    7.82
  -1 -11  -2  250.24   18.86
  -1 -11  -1  142.89   14.19
  -1 -11   0   16.65    4.70
  -1 -11   1    0.52    2.09
  -1 -11   2    1.89    3.20
  -1 -10 -11  145.03   15.98
  -1 -10 -10   89.59   12.09
  -1 -10  -9   34.62    7.26
  -1 -10  -8    2.70    2.29
  -1 -10  -7   36.12    6.92
  -1 -10  -6    4.93    2.45
  -1 -10  -5  178.36   15.56
  -1 -10  -5  151.07   13.73
  -1 -10  -4  603.78   28.34
  -1 -10  -4  596.20   29.23
  -1 -10  -3  211.08   16.32
  -1 -10  -2    7.41    3.15
  -1 -10  -1   36.78    6.73
  -1 -10   0  226.25   17.26
  -1 -10   1   23.28    5.43
  -1 -10   2   47.31    8.20
  -1  -9 -12   11.41    4.50
  -1  -9 -11   27.27    6.67
  -1  -9 -10   72.28   10.78
  -1  -9  -9   66.87    9.73
  -1  -9  -8   33.06    6.69
  -1  -9  -7   25.20    5.63
  -1  -9  -6  251.47   17.21
  -1  -9  -5    2.80    1.90
  -1  -9  -4   65.57    8.34
  -1  -9  -4   68.27    8.97
  -1  -9  -3  314.79   19.20
  -1  -9  -3  328.87   19.02
  -1  -9  -2  338.41   19.74
  -1  -9  -1   13.90    4.10
  -1  -9   0   30.17    5.98
  -1  -9   1    8.26    3.12
  -1  -9   2   12.81    4.19
  -1  -8 -12  178.03   17.69
  -1  -8 -11   72.66   10.77
  -1  -8 -10    2.14    2.54
  -1  -8  -9   14.61    4.41
  -1  -8  -8   10.88    3.73
  -1  -8  -7   25.17    5.42
  -1  -8  -6   67.81    8.42
  -1  -8  -5  336.66   18.81
  -1  -8  -4    6.11    2.44
  -1  -8  -3  110.89   10.47
  -1  -8  -3  120.91   10.57
  -1  -8  -2  724.73   28.44
  -1  -8  -1  330.28   18.32
  -1  -8   0   26.63    5.23
  -1  -8   1   51.85    7.20
  -1  -8   2    7.04    2.98
  -1  -7 -12   59.24    9.80
  -1  -7 -11  113.29   13.21
  -1  -7 -10  120.66   12.94
  -1  -7  -9    9.22    3.79
  -1  -7  -8   22.00    5.28
  -1  -7  -7   26.57    2.06
  -1  -7  -7   29.62    5.47
  -1  -7  -6    8.73    2.90
  -1  -7  -5  271.39   15.91
  -1  -7  -4  472.23   21.02
  -1  -7  -3  231.80   14.53
  -1  -7  -3  229.02   13.90
  -1  -7  -2   26.28    4.58
  -1  -7  -2   22.03    4.09
  -1  -7  -1  526.34   22.36
  -1  -7   0  215.09   13.77
  -1  -7   1  174.80   12.49
  -1  -7   2  373.61   19.76
  -1  -6 -13  118.92   14.91
  -1  -6 -12   32.29    7.45
  -1  -6 -11   39.26    7.64
  -1  -6 -10  153.94   14.53
  -1  -6  -9   24.12    5.43
  -1  -6  -8   73.94    8.93
  -1  -6  -8   62.51    5.66
  -1  -6  -7   40.96    6.29
  -1  -6  -6   90.56    8.90
  -1  -6  -5    5.16    2.03
  -1  -6  -4  387.34   17.91
  -1  -6  -3  836.41   27.73
  -1  -6  -2  365.31   17.23
  -1  -6  -2  396.52   17.30
  -1  -6  -1   13.03    2.98
  -1  -6   0   44.76    5.69
  -1  -6   1    9.23    2.53
  -1  -6   2   19.89    4.16
  -1  -5 -13  150.43   16.61
  -1  -5 -12  248.00   20.69
  -1  -5 -11   69.87   10.24
  -1  -5 -10    3.91    2.55
  -1  -5  -9   57.59    8.23
  -1  -5  -8   52.45    7.32
  -1  -5  -8   51.93    5.20
  -1  -5  -7  295.73   16.89
  -1  -5  -7  289.42   11.93
  -1  -5  -6  728.48   26.96
  -1  -5  -6  698.62   19.88
  -1  -5  -5  890.74   29.41
  -1  -5  -4  162.44   10.46
  -1  -5  -3  224.47   11.92
  -1  -5  -2 1206.02   34.18
  -1  -5  -2 1239.26   33.81
  -1  -5  -1   98.35    7.59
  -1  -5  -1  113.04    8.07
  -1  -5   0  407.46   16.85
  -1  -5   1    1.98    1.22
  -1  -5   2   30.03    4.74
  -1  -4 -13    5.05    3.62
  -1  -4 -12  111.43   13.78
  -1  -4 -11  176.09   16.50
  -1  -4 -10  173.31   15.39
  -1  -4  -9   24.08    5.54
  -1  -4  -8   91.64    7.01
  -1  -4  -8   84.43    9.37
  -1  -4  -7   39.63    4.15
  -1  -4  -7   39.60    4.78
  -1  -4  -7   39.84    6.05
  -1  -4  -6  263.56   14.62
  -1  -4  -6  244.04   10.11
  -1  -4  -5  410.44   17.35
  -1  -4  -5  360.86   11.63
  -1  -4  -4 3057.45   68.33
  -1  -4  -3 1211.00   32.53
  -1  -4  -2   67.32    5.57
  -1  -4  -1   35.93    4.16
  -1  -4  -1   38.39    4.18
  -1  -4   0  627.78   20.53
  -1  -4   1   75.79    6.36
  -1  -3 -13  163.01   17.53
  -1  -3 -12   25.99    6.70
  -1  -3 -11   36.15    7.44
  -1  -3 -10   79.02   10.33
  -1  -3  -9  119.32   11.86
  -1  -3  -8   97.21    9.86
  -1  -3  -7  281.19   12.30
  -1  -3  -7  274.18   16.04
  -1  -3  -6  426.47   14.42
  -1  -3  -6  446.02   19.53
  -1  -3  -6  410.40   16.40
  -1  -3  -5   72.52    6.79
  -1  -3  -5   66.75    4.34
  -1  -3  -5   68.21    5.28
  -1  -3  -4  828.94   25.14
  -1  -3  -4  838.62   19.25
  -1  -3  -3  700.83   21.09
  -1  -3  -2  570.04   17.63
  -1  -3  -1  211.09    9.26
  -1  -3  -1  208.04    9.25
  -1  -3   0   71.60    5.26
  -1  -3   1    2.82    1.45
  -1  -2 -13  135.67   15.88
  -1  -2 -12  280.96   22.08
  -1  -2 -12  284.44   22.33
  -1  -2 -11   56.23    9.07
  -1  -2 -11   69.00   10.10
  -1  -2 -10    0.51    1.51
  -1  -2 -10   -0.22    1.21
  -1  -2  -9   68.88    8.89
  -1  -2  -9   79.77    9.64
  -1  -2  -8   11.36    3.48
  -1  -2  -8   10.73    3.58
  -1  -2  -7   46.41    6.46
  -1  -2  -7   34.58    4.37
  -1  -2  -7   39.76    5.87
  -1  -2  -6  548.49   20.50
  -1  -2  -6  577.25   22.39
  -1  -2  -6  551.06   22.19
  -1  -2  -6  554.83   18.06
  -1  -2  -5  509.68   17.90
  -1  -2  -5  522.03   19.71
  -1  -2  -5  501.99   15.61
  -1  -2  -4   26.24    2.40
  -1  -2  -4   34.54    4.13
  -1  -2  -3  225.49    6.35
  -1  -2  -3  231.57   10.13
  -1  -2  -2 1515.92   30.06
  -1  -2  -2 1451.61   33.71
  -1  -2  -1  294.80    9.85
  -1  -2  -1  275.27    9.69
  -1  -2   0  382.47   11.99
  -1  -2   1    3.13    1.38
  -1  -2   2   55.49    4.79
  -1  -2   3   52.37    5.20
  -1  -1 -13    5.27    3.85
  -1  -1 -12   50.96    9.29
  -1  -1 -11   90.90   11.73
  -1  -1 -10   70.99    9.73
  -1  -1  -9  231.98   16.78
  -1  -1  -8   10.32    3.38
  -1  -1  -7  410.74   19.79
  -1  -1  -6    5.07    1.90
  -1  -1  -5  636.17   21.86
  -1  -1  -5  637.74   21.83
  -1  -1  -4  464.22   16.40
  -1  -1  -3  261.48   10.53
  -1  -1  -3  247.03    9.90
  -1  -1  -3  244.88    7.92
  -1  -1  -2    4.91    1.20
  -1  -1  -2    6.72    1.18
  -1  -1  -1 1309.47   27.60
  -1  -1   1  606.95   15.36
  -1  -1   1  628.02   15.94
  -1  -1   2 1566.70   35.89
  -1  -1   2 1596.87   33.19
  -1  -1   3  756.30   22.29
  -1  -1   4    5.84    1.93
  -1   0 -12   56.83    9.99
  -1   0 -11   24.71    6.16
  -1   0 -10   61.64    9.08
  -1   0  -9    7.40    3.22
  -1   0  -8  121.98   11.22
  -1   0  -7  323.40   17.48
  -1   0  -6  348.56   16.91
  -1   0  -5   57.98    5.95
  -1   0  -5   66.33    3.22
  -1   0  -4  546.94   18.35
  -1   0  -3  397.04   13.29
  -1   0  -2  251.91    8.48
  -1   0  -1   56.55    3.48
  -1   0  -1   62.20    2.91
  -1   0   1   84.47    4.49
  -1   0   1   80.88    3.85
  -1   0   2    5.71    1.30
  -1   0   2    4.83    1.41
  -1   0   3  319.46   12.55
  -1   0   4  980.17   29.77
  -1   0   4 1142.80   23.84
  -1   0   5  340.98    9.27
  -1   1 -12  114.59   14.36
  -1   1 -11   41.20    8.08
  -1   1 -10    3.99    2.66
  -1   1  -9    2.06    1.54
  -1   1  -8    7.83    2.93
  -1   1  -7  401.50   20.33
  -1   1  -6 1159.45   36.07
  -1   1  -5  383.62   16.88
  -1   1  -4  218.02   10.91
  -1   1  -3  787.12   21.84
  -1   1  -2 1734.86   37.16
  -1   1  -1  653.73   17.43
  -1   1  -1  645.17   14.92
  -1   1   0    0.43    0.39
  -1   1   0    1.10    0.56
  -1   1   1 1474.33   32.45
  -1   1   1 1477.27   30.67
  -1   1   2  224.72    9.08
  -1   1   2  229.24    8.82
  -1   1   3    1.62    1.06
  -1   1   3    2.13    1.06
  -1   1   4  268.95   12.78
  -1   1   4  314.03   13.21
  -1   1   7  145.76    4.79
  -1   2 -12   45.36    9.06
  -1   2 -11   39.00    8.10
  -1   2 -10   63.36    9.58
  -1   2  -9   22.08    5.50
  -1   2  -8  143.87   12.88
  -1   2  -7   14.89    4.02
  -1   2  -6  210.36   13.47
  -1   2  -5  740.66   25.81
  -1   2  -4 2764.61   62.88
  -1   2  -3  124.38    7.53
  -1   2  -3  108.87    6.12
  -1   2  -2   37.27    3.55
  -1   2  -2   33.35    2.83
  -1   2   0  482.34   13.99
  -1   2   0  477.79   11.67
  -1   2   1  373.16    9.90
  -1   2   1  362.31   12.43
  -1   2   2 2256.38   48.86
  -1   2   3 1064.73   28.43
  -1   2   3 1180.84   29.44
  -1   2   4   96.79    6.92
  -1   2   4   94.54    7.15
  -1   2   5  493.23   18.74
  -1   2   6 1047.35   32.56
  -1   3 -11    3.78    3.33
  -1   3 -10   10.23    3.87
  -1   3  -9   11.87    4.32
  -1   3  -8  231.73   17.23
  -1   3  -7  322.87   19.01
  -1   3  -6  264.60   15.94
  -1   3  -5   19.15    3.35
  -1   3  -5   15.43    3.45
  -1   3  -4  456.89   18.82
  -1   3  -4  478.21   16.86
  -1   3  -3  750.81   23.41
  -1   3  -3  712.11   20.79
  -1   3  -2  121.25    6.45
  -1   3  -2  120.77    7.45
  -1   3   0  133.18    6.84
  -1   3   0  117.79    5.65
  -1   3   1   90.14    4.77
  -1   3   1   93.48    5.29
  -1   3   1   94.97    6.33
  -1   3   2   29.39    3.02
  -1   3   2   28.64    3.51
  -1   3   3 1085.33   29.13
  -1   3   4 2784.26   62.23
  -1   3   4 2651.72   60.18
  -1   3   5  257.31   12.88
  -1   3   6   62.29    6.46
  -1   3   7  254.36   14.59
  -1   4 -11   51.25    9.75
  -1   4 -10   31.06    7.25
  -1   4  -9   30.74    6.84
  -1   4  -8   25.90    5.69
  -1   4  -7  140.05   12.76
  -1   4  -6  600.72   26.59
  -1   4  -5  471.93   21.68
  -1   4  -4   33.07    4.83
  -1   4  -4   35.35    4.39
  -1   4  -3  175.57   10.85
  -1   4  -3  187.24    9.74
  -1   4  -2  294.46   12.15
  -1   4  -2  282.07   13.29
  -1   4   0  239.49    9.84
  -1   4   0  243.27   10.58
  -1   4   1   85.44    5.42
  -1   4   1   93.75    5.69
  -1   4   2  273.47   10.88
  -1   4   2  277.77   12.62
  -1   4   3   25.34    3.70
  -1   4   3   24.93    3.31
  -1   4   4 1473.31   38.58
  -1   4   5  682.74   23.31
  -1   4   6  727.23   25.43
  -1   4   7    2.06    1.85
  -1   4   8   12.86    3.48
  -1   5 -10   32.65    7.89
  -1   5  -9  127.96   14.41
  -1   5  -8  189.49   16.52
  -1   5  -7  124.70   12.54
  -1   5  -6   19.75    4.72
  -1   5  -5  360.74   19.50
  -1   5  -4  426.97   20.27
  -1   5  -3   58.37    6.64
  -1   5  -2    2.66    1.73
  -1   5  -1    2.31    1.16
  -1   5   0   57.75    5.34
  -1   5   0   59.38    5.15
  -1   5   1    0.52    0.98
  -1   5   1    0.66    0.70
  -1   5   2 1071.31   28.68
  -1   5   2 1070.34   31.46
  -1   5   3  846.99   25.13
  -1   5   3  849.20   26.93
  -1   5   4   57.73    6.10
  -1   5   4   56.04    5.65
  -1   5   5  383.07   17.10
  -1   5   6  623.62   23.72
  -1   5   7  252.20   14.63
  -1   5   8   17.83    3.95
  -1   5   9   25.20    5.13
  -1   6  -9   35.40    7.77
  -1   6  -8  115.34   13.27
  -1   6  -7  221.77   17.75
  -1   6  -6  215.29   16.59
  -1   6  -5    3.96    1.90
  -1   6  -4  335.97   18.81
  -1   6  -3  291.73   16.66
  -1   6  -2   31.53    5.01
  -1   6   0  146.14    9.30
  -1   6   0  138.31    8.94
  -1   6   1  133.65    7.95
  -1   6   1  121.08    8.23
  -1   6   2    4.92    2.02
  -1   6   2    5.10    1.62
  -1   6   3  552.48   20.10
  -1   6   3  552.92   21.77
  -1   6   4  891.66   29.53
  -1   6   5  162.48   11.09
  -1   6   6   10.32    2.73
  -1   6   7   71.86    7.66
  -1   6   8   69.45    7.97
  -1   6   9    1.14    1.53
  -1   6  10   94.51   10.31
  -1   7  -9    8.64    4.03
  -1   7  -8    4.54    3.50
  -1   7  -7   87.58   11.54
  -1   7  -6  429.65   25.16
  -1   7  -5  313.61   20.03
  -1   7  -4   59.95    8.19
  -1   7  -3   -0.43    1.15
  -1   7  -2  370.22   19.61
  -1   7   1  469.56   17.47
  -1   7   2  227.15   14.17
  -1   7   3    1.51    1.41
  -1   7   4  223.70   13.92
  -1   7   5  443.15   20.47
  -1   7   6   83.45    8.41
  -1   7   7   12.82    3.37
  -1   7   8   23.30    4.77
  -1   7   9   23.01    4.80
  -1   7  10   49.80    7.55
  -1   8  -8  151.77   16.44
  -1   8  -7   -0.25    1.79
  -1   8  -6   38.09    7.52
  -1   8  -5  202.36   16.78
  -1   8  -4  329.87   20.98
  -1   8  -3   35.96    6.43
  -1   8  -2   -0.07    1.13
  -1   8   2  663.26   27.54
  -1   8   3  391.85   20.18
  -1   8   4   52.17    6.97
  -1   8   5  231.39   15.13
  -1   8   6  229.44   15.14
  -1   8   7   98.42    9.89
  -1   8   8   17.46    4.50
  -1   8   9   13.41    3.98
  -1   8  10    5.92    2.92
  -1   9  -7  185.75   18.63
  -1   9  -6   68.43   10.75
  -1   9  -5    2.46    1.56
  -1   9  -4  130.38   13.62
  -1   9  -3  158.25   14.58
  -1   9  -2   14.08    4.05
  -1   9   2   46.52    7.27
  -1   9   3  277.45   17.73
  -1   9   4  354.30   20.06
  -1   9   5  193.05   14.48
  -1   9   6   85.71    9.48
  -1   9   7   42.05    6.63
  -1   9   8   54.84    7.67
  -1   9   9   91.11   10.27
  -1  10  -5  113.92   13.85
  -1  10  -4   21.49    5.80
  -1  10  -3   24.06    6.25
  -1  10  -2   20.95    5.62
  -1  10   2  158.61   14.22
  -1  10   3    0.96    1.52
  -1  10   4  324.94   20.17
  -1  10   5  217.83   16.35
  -1  10   6  115.96   11.70
  -1  10   7    1.60    2.73
  -1  10   8    5.51    2.81
  -1  11  -4  150.10   16.15
  -1  11  -3    3.79    2.85
  -1  11  -2   14.17    4.86
  -1  11  -1    2.30    2.17
  -1  11   2  229.53   18.32
  -1  11   3  221.24   17.62
  -1  11   4    5.08    2.82
  -1  11   5   67.77    9.42
  -1  11   6  142.99   13.88
  -1  11   7   82.97   10.32
  -1  12  -2   11.49    4.52
  -1  12  -1   27.40    6.80
  -1  12   1   21.74    6.20
  -1  12   2   19.98    5.76
  -1  12   3  125.86   13.90
  -1  12   4  236.99   19.04
  -1  12   5   34.41    7.09
  -1  12   6    2.75    2.40
  -1  13   2   60.74   10.39
  -1  13   3    0.61    1.76
  -1  13   4  103.84   13.13
  -1  13   5   58.98    9.84
   0 -13  -8  216.01   19.24
   0 -13  -7   86.96   11.81
   0 -13  -5   66.27   10.85
   0 -13  -4   29.01    6.93
   0 -13  -3   26.25    6.65
   0 -13  -2   64.73   10.38
   0 -13  -1   83.29   11.90
   0 -13   0   31.97    7.63
   0 -13   1   -0.71    1.73
   0 -12  -9   32.53    7.29
   0 -12  -8   66.15   10.31
   0 -12  -7  203.85   17.58
   0 -12  -6  167.11   17.06
   0 -12  -6  196.12   16.88
   0 -12  -5   49.91    8.96
   0 -12  -4    4.06    3.09
   0 -12  -3    3.81    2.63
   0 -12  -2    4.40    2.70
   0 -12  -1   61.68    9.75
   0 -12   0  190.07   17.06
   0 -12   1  143.41   15.18
   0 -11 -10   53.74    9.41
   0 -11  -9  213.20   18.38
   0 -11  -8   44.36    7.96
   0 -11  -7   13.18    4.45
   0 -11  -6   94.98   11.25
   0 -11  -5  106.57   12.64
   0 -11  -5  111.96   11.91
   0 -11  -4   38.56    7.24
   0 -11  -3   20.28    5.37
   0 -11  -2   94.46   11.30
   0 -11  -1   33.12    6.81
   0 -11   0   31.21    6.54
   0 -11   1  214.26   17.42
   0 -11   2  255.84   19.98
   0 -10 -11   38.70    7.91
   0 -10 -10   -0.44    1.40
   0 -10  -9  119.81   13.30
   0 -10  -8  242.72   18.34
   0 -10  -7  159.59   14.24
   0 -10  -6    3.41    2.22
   0 -10  -5   68.29    8.78
   0 -10  -4   38.28    7.08
   0 -10  -4   35.56    6.24
   0 -10  -3    5.28    2.44
   0 -10  -2   72.86    9.22
   0 -10  -1  155.62   13.71
   0 -10   0   72.06    9.35
   0 -10   1   18.80    4.79
   0 -10   2  358.75   22.41
   0  -9 -12   41.33    8.55
   0  -9 -11   85.93   11.76
   0  -9 -10  168.43   15.95
   0  -9  -9   29.23    6.57
   0  -9  -8   19.36    4.86
   0  -9  -7  208.83   15.87
   0  -9  -6  329.67   19.37
   0  -9  -5   11.56    3.69
   0  -9  -4    7.19    2.76
   0  -9  -3    0.99    1.14
   0  -9  -2    0.63    1.28
   0  -9  -1  265.42   17.03
   0  -9   0  400.29   21.55
   0  -9   1  213.85   15.39
   0  -9   2    4.89    2.88
   0  -8 -12    0.69    2.25
   0  -8 -11   12.10    4.80
   0  -8 -10  181.75   16.16
   0  -8  -9  393.93   23.34
   0  -8  -8  117.52   11.82
   0  -8  -7   18.55    4.54
   0  -8  -6  467.54   22.79
   0  -8  -5   29.63    5.08
   0  -8  -4  245.63   15.08
   0  -8  -3   16.54    3.77
   0  -8  -2   90.65    9.26
   0  -8  -1   73.90    8.15
   0  -8   0  187.92   13.32
   0  -8   1  729.02   28.84
   0  -8   2  406.44   21.17
   0  -7 -12   77.45   11.33
   0  -7 -11   79.91   11.06
   0  -7 -10    5.59    3.46
   0  -7  -9  352.31   21.43
   0  -7  -8  548.80   26.13
   0  -7  -7  215.68   14.95
   0  -7  -6    2.71    0.87
   0  -7  -6    2.26    0.65
   0  -7  -6    1.87    1.77
   0  -7  -5   99.88    9.14
   0  -7  -4  155.20   10.94
   0  -7  -4  127.02    4.53
   0  -7  -3   47.63    3.29
   0  -7  -3   57.33    6.46
   0  -7  -2  412.36   19.34
   0  -7  -2  392.80   13.27
   0  -7  -2  388.70   17.90
   0  -7  -1  938.69   31.14
   0  -7  -1  926.30   26.34
   0  -7   0  395.78   18.61
   0  -7   1  111.96    9.71
   0  -7   2  594.84   24.69
   0  -6 -13   -2.37    2.60
   0  -6 -12   30.89    7.33
   0  -6 -11  122.16   13.57
   0  -6 -10  254.73   18.77
   0  -6  -9   68.76    9.03
   0  -6  -8  250.90   12.74
   0  -6  -8  234.24   16.09
   0  -6  -7  522.12   23.71
   0  -6  -7  539.03   18.23
   0  -6  -6  412.87   13.64
   0  -6  -6  429.77   20.07
   0  -6  -5  124.40    5.23
   0  -6  -5  112.04    9.34
   0  -6  -4   45.74    5.61
   0  -6  -3  305.39   14.57
   0  -6  -3  308.49    8.99
   0  -6  -2    5.58    1.25
   0  -6  -2    0.42    1.05
   0  -6  -1 1132.70   33.57
   0  -6  -1 1124.41   28.87
   0  -6   0 1835.71   45.53
   0  -6   0 1992.01   48.98
   0  -6   1  890.73   29.05
   0  -6   2    1.03    1.24
   0  -5 -13   56.19   10.24
   0  -5 -12   -0.80    2.03
   0  -5 -11    5.72    3.69
   0  -5 -10  243.91   18.35
   0  -5  -9  400.23   22.47
   0  -5  -8   92.93    9.83
   0  -5  -7   91.12    9.01
   0  -5  -7   85.20    6.87
   0  -5  -6  359.04   17.54
   0  -5  -6  345.55   14.66
   0  -5  -5   65.34    6.72
   0  -5  -5   67.82    5.68
   0  -5  -4   66.08    3.47
   0  -5  -4   68.01    6.41
   0  -5  -3  339.31   14.65
   0  -5  -2 1702.11   35.07
   0  -5  -2 1647.86   41.39
   0  -5  -1  102.38    7.62
   0  -5  -1   90.81    5.43
   0  -5  -1   96.14    7.04
   0  -5   0    3.64    1.51
   0  -5   0    1.09    1.11
   0  -5   1 1734.40   43.96
   0  -5   1 1792.36   44.54
   0  -5   2 1050.66   31.40
   0  -4 -13   35.09    8.12
   0  -4 -12   73.39   11.06
   0  -4 -11  116.54   13.26
   0  -4 -10    9.33    3.91
   0  -4  -9  380.72   21.77
   0  -4  -8  900.84   33.95
   0  -4  -7  206.64   11.73
   0  -4  -7  193.52   13.38
   0  -4  -6    4.75    1.56
   0  -4  -6    3.41    1.58
   0  -4  -6    5.05    1.53
   0  -4  -5   34.41    4.61
   0  -4  -5   27.45    3.47
   0  -4  -4   29.25    3.96
   0  -4  -4   31.31    3.49
   0  -4  -3   43.00    4.48
   0  -4  -3   46.86    2.59
   0  -4  -2  460.41   15.74
   0  -4  -1 1428.43   34.46
   0  -4  -1 1429.77   30.93
   0  -4   0  223.66   10.40
   0  -4   0  231.44    9.68
   0  -4   1  325.45   13.54
   0  -4   1  335.54   13.51
   0  -4   2 1493.75   38.30
   0  -3 -13    1.61    1.61
   0  -3 -12   20.20    6.01
   0  -3 -11  292.85   21.33
   0  -3 -10  586.73   29.52
   0  -3  -9   15.74    4.33
   0  -3  -8  147.69   12.33
   0  -3  -7  362.64   18.69
   0  -3  -6   84.78    6.50
   0  -3  -6   80.53    6.74
   0  -3  -6   73.68    7.35
   0  -3  -5  204.10    9.76
   0  -3  -5  199.76   11.43
   0  -3  -4   13.55    2.16
   0  -3  -4   14.26    2.61
   0  -3  -3 1517.00   36.01
   0  -3  -3 1488.12   33.44
   0  -3  -2  154.48    4.70
   0  -3  -2  165.59    7.72
   0  -3  -1  509.93   15.05
   0  -3   0 2609.78   53.85
   0  -3   0 2556.47   52.44
   0  -3   1  361.72   13.51
   0  -3   1  399.09   13.38
   0  -3   2  412.51   16.02
   0  -2 -13    8.83    4.35
   0  -2 -13   15.10    5.39
   0  -2 -12   12.00    4.59
   0  -2 -12   31.94    7.40
   0  -2 -11   35.07    7.44
   0  -2 -10  864.48   37.18
   0  -2  -9  139.75   13.09
   0  -2  -8  680.84   28.93
   0  -2  -7  242.43   15.12
   0  -2  -6  394.56   17.08
   0  -2  -6  393.28   15.92
   0  -2  -6  410.28   18.76
   0  -2  -5   21.69    3.26
   0  -2  -5   20.18    3.06
   0  -2  -5   24.62    4.06
   0  -2  -4  109.39    6.20
   0  -2  -4  125.50    7.82
   0  -2  -3  377.73   11.71
   0  -2  -3  397.45   13.70
   0  -2  -2 2150.11   43.42
   0  -2  -2 1997.49   41.45
   0  -2  -1   50.75    3.28
   0  -2   0  519.69   13.69
   0  -2   0  504.82   12.84
   0  -2   1 2630.68   55.24
   0  -2   1 2721.53   54.08
   0  -2   2 1116.20   29.01
   0  -2   2 1101.27   27.88
   0  -2   3   83.54    6.33
   0  -2   4   46.31    5.25
   0  -1 -12  100.04   13.25
   0  -1 -11  166.05   16.33
   0  -1 -10   -0.62    1.21
   0  -1  -9  496.38   25.38
   0  -1  -8 1001.06   36.25
   0  -1  -7  178.53   12.75
   0  -1  -6  108.74    9.04
   0  -1  -6  107.88    8.09
   0  -1  -5   74.48    6.57
   0  -1  -5   88.23    7.35
   0  -1  -5   86.00    6.43
   0  -1  -4    0.32    0.84
   0  -1  -4    0.19    0.80
   0  -1  -3  585.99   17.41
   0  -1  -3  539.30   15.35
   0  -1  -2 2286.63   44.73
   0  -1  -2 2245.94   46.71
   0  -1   1  601.19   14.88
   0  -1   2 3132.38   63.13
   0  -1   3 1480.52   35.43
   0  -1   4   73.91    6.26
   0   0 -12   54.30    9.86
   0   0 -11  232.54   19.46
   0   0 -10  300.67   21.05
   0   0  -9   42.70    7.34
   0   0  -8  356.41   20.30
   0   0  -7  485.12   22.54
   0   0  -6  236.24   13.94
   0   0  -5   12.95    3.07
   0   0  -5   12.99    3.03
   0   0  -4  288.31   13.10
   0   0  -4  298.84   13.11
   0   0  -3  328.44   12.35
   0   0  -3  315.77   12.23
   0   0  -2  149.58    6.65
   0   0  -2  164.65    6.87
   0   0   2  165.58    6.87
   0   0   3  308.17   11.76
   0   0   4  253.69   11.79
   0   1 -12   46.84    9.23
   0   1 -11   -0.73    1.78
   0   1 -10  328.07   22.38
   0   1  -9  498.09   26.57
   0   1  -8   69.54    8.95
   0   1  -7  183.21   13.57
   0   1  -6  166.28   12.12
   0   1  -5   85.84    7.71
   0   1  -4   86.72    7.27
   0   1  -4   97.10    7.26
   0   1  -3 1441.83   36.20
   0   1  -3 1449.03   35.51
   0   1  -2 3271.18   66.54
   0   1  -2 3225.20   65.33
   0   1  -1  629.74   15.88
   0   1   2 2259.51   46.94
   0   1   2 2310.84   45.17
   0   1   3  607.22   18.07
   0   1   4    0.95    1.08
   0   1   5   86.37    7.37
   0   2 -12  163.73   17.77
   0   2 -11  146.61   16.00
   0   2 -10   -1.89    2.04
   0   2  -9  311.04   21.11
   0   2  -8  600.70   28.97
   0   2  -7  140.69   12.18
   0   2  -6   -0.06    1.27
   0   2  -6    0.69    0.42
   0   2  -5   30.10    4.77
   0   2  -4   58.62    6.00
   0   2  -3   91.57    7.16
   0   2  -3   95.25    6.87
   0   2  -2 1127.63   29.01
   0   2  -2 1118.80   28.04
   0   2  -2 1086.68   26.92
   0   2  -1 2691.63   55.22
   0   2  -1 2694.69   54.19
   0   2   0  521.13   13.70
   0   2   1   45.28    3.11
   0   2   2 2169.63   43.64
   0   2   2 2172.97   45.42
   0   2   3  373.65   13.50
   0   2   3  349.68   11.20
   0   2   4   77.05    6.29
   0   2   4  111.76    6.35
   0   2   5   21.16    3.56
   0   2   7  214.66    6.62
   0   3 -11  241.33   21.03
   0   3 -10  268.05   21.31
   0   3  -9  133.73   13.99
   0   3  -8  355.05   21.71
   0   3  -7  228.27   15.94
   0   3  -7  176.42    7.46
   0   3  -6  159.21   12.40
   0   3  -5   32.59    5.31
   0   3  -4  451.14   19.07
   0   3  -4  478.36   18.42
   0   3  -3 1246.99   35.67
   0   3  -3 1274.87   34.93
   0   3  -3 1314.85   33.41
   0   3  -2  447.13   16.76
   0   3  -2  463.08   16.67
   0   3  -2  474.24   15.83
   0   3  -1  371.34   12.85
   0   3  -1  377.52   13.35
   0   3   0 2651.06   54.92
   0   3   1  525.58   12.26
   0   3   1  524.02   15.28
   0   3   2  156.96    7.57
   0   3   2  156.65    6.97
   0   3   3 1442.86   32.86
   0   3   3 1463.46   35.36
   0   3   4   12.40    2.15
   0   3   4   12.20    2.53
   0   3   5  196.92    9.71
   0   3   6   76.82    6.46
   0   4 -11   44.24    9.37
   0   4 -10  364.15   25.73
   0   4  -9  410.36   26.06
   0   4  -8   31.84    6.69
   0   4  -7   31.98    6.12
   0   4  -6   65.82    8.30
   0   4  -5   10.40    3.35
   0   4  -4   -0.22    1.24
   0   4  -3  412.95   17.78
   0   4  -3  401.88   16.40
   0   4  -2 1475.01   38.56
   0   4  -2 1413.08   38.31
   0   4  -2 1457.19   36.75
   0   4  -1  326.70   13.26
   0   4   0  236.85   10.59
   0   4   1 1453.74   30.67
   0   4   1 1426.79   34.63
   0   4   2  443.26   15.30
   0   4   2  427.06   14.51
   0   4   3   44.95    4.55
   0   4   3   47.46    4.19
   0   4   4   29.84    3.42
   0   4   4   28.60    3.98
   0   4   5   25.55    3.35
   0   4   6    4.42    1.61
   0   4   7  203.21   11.57
   0   5 -10    8.02    4.23
   0   5  -9  185.50   17.47
   0   5  -8  336.15   22.71
   0   5  -7  100.32   11.44
   0   5  -6    0.87    1.28
   0   5  -5   13.73    3.75
   0   5  -4   21.30    4.27
   0   5  -3    7.32    2.46
   0   5  -2 1005.89   31.76
   0   5  -1 1864.36   45.74
   0   5  -1 1790.41   45.24
   0   5   0    1.57    1.14
   0   5   1   98.61    5.28
   0   5   1   90.13    6.75
   0   5   2 1693.80   41.47
   0   5   3  347.34   14.65
   0   5   3  321.00   13.22
   0   5   4   64.97    5.55
   0   5   5   73.38    5.99
   0   5   6  343.60   14.67
   0   5   7   92.65    7.65
   0   5   8   95.47    8.31
   0   6  -9    5.44    2.43
   0   6  -8   43.04    8.44
   0   6  -7  145.51   14.56
   0   6  -6   49.33    8.00
   0   6  -5   33.69    6.12
   0   6  -4  572.53   25.76
   0   6  -3    3.91    2.09
   0   6  -2    5.53    2.40
   0   6   1 1180.52   28.64
   0   6   2    6.01    1.17
   0   6   3  298.68   13.70
   0   6   4   48.60    5.21
   0   6   5  116.08    8.27
   0   6   6  426.47   17.34
   0   6   7  537.03   20.66
   0   6   8  240.30   13.60
   0   6   9   61.75    7.05
   0   7  -8   30.29    7.31
   0   7  -7    0.44    1.49
   0   7  -6   24.45    5.84
   0   7  -5    3.33    2.38
   0   7  -4   64.11    8.55
   0   7  -3  159.33   13.08
   0   7  -2  554.08   25.06
   0   7   1  987.93   26.37
   0   7   2  411.77   12.89
   0   7   3   43.88    5.41
   0   7   4  173.57   10.88
   0   7   5   97.99    8.11
   0   7   6    1.92    1.30
   0   7   7  235.77   13.37
   0   7   8  543.81   22.18
   0   7   9  353.82   17.98
   0   8  -8  243.73   21.67
   0   8  -7   48.23    9.18
   0   8  -6    9.02    3.86
   0   8  -5   39.86    7.30
   0   8  -4   23.72    5.72
   0   8  -3   16.94    4.46
   0   8  -2  377.13   21.39
   0   8   1   65.99    5.58
   0   8   2  104.02    6.15
   0   8   3   14.25    3.42
   0   8   4  249.93   14.31
   0   8   5   29.68    4.87
   0   8   6  450.61   19.88
   0   8   7   15.51    3.31
   0   8   8  102.97    9.14
   0   8   9  401.84   19.56
   0   9  -6   70.02   11.03
   0   9  -5   59.17    9.58
   0   9  -4  132.62   13.95
   0   9  -3  234.12   18.21
   0   9  -2    6.96    3.11
   0   9   3    3.16    2.11
   0   9   4    6.12    2.39
   0   9   5   12.25    3.26
   0   9   6  344.16   18.11
   0   9   7  246.00   15.01
   0   9   8   20.41    4.20
   0  10  -5    5.48    3.66
   0  10  -4   45.80    8.67
   0  10  -3  214.79   18.34
   0  10  -2  311.37   21.74
   0  10   3    8.25    2.91
   0  10   4   37.18    6.16
   0  10   5   66.15    8.08
   0  10   6    0.06    1.19
   0  10   7  157.12   12.47
   0  11  -4    1.76    2.09
   0  11  -3    0.80    1.36
   0  11  -2  231.55   19.59
   0  11  -1  179.72   16.95
   0  11   3   25.68    5.60
   0  11   4   29.19    5.84
   0  11   5  127.93   12.13
   0  11   6   98.41   10.58
   0  12  -1  132.44   15.31
   0  12   2    1.46    1.75
   0  12   3    8.19    3.91
   0  12   4    5.16    2.48
   0  12   5   54.75    8.47
   0  13   2   60.28    9.90
   0  13   3   17.45    5.29
   0  13   4   34.31    7.12
   1 -13  -4  115.57   13.93
   1 -13  -3   -0.81    2.17
   1 -13  -2   77.95   11.13
   1 -13  -1   66.85   10.58
   1 -12  -7    2.11    2.59
   1 -12  -6    6.70    3.63
   1 -12  -5   25.54    6.59
   1 -12  -4  190.55   17.42
   1 -12  -3  110.06   12.82
   1 -12  -2   24.69    5.94
   1 -12  -1   26.89    6.32
   1 -12   0   56.42    9.10
   1 -12   1   31.23    6.83
   1 -11 -11   -0.17    2.52
   1 -11 -10   27.43    6.68
   1 -11  -9   19.17    5.56
   1 -11  -8   36.81    7.18
   1 -11  -7   95.41   11.14
   1 -11  -6  131.17   12.75
   1 -11  -5   59.78    9.56
   1 -11  -4   -0.56    1.88
   1 -11  -3  195.78   16.26
   1 -11  -2  191.45   15.98
   1 -11  -1   45.08    7.65
   1 -11   0    0.20    1.55
   1 -11   1    6.82    3.41
   1 -11   2   17.43    5.01
   1 -10 -11   93.80   12.38
   1 -10 -10   15.27    5.03
   1 -10  -9    1.08    1.62
   1 -10  -8    0.47    1.28
   1 -10  -7   -1.32    1.80
   1 -10  -6  103.69   10.83
   1 -10  -5  214.80   15.44
   1 -10  -4  304.51   20.27
   1 -10  -3   13.40    4.28
   1 -10  -2  148.06   13.12
   1 -10  -1   49.11    7.50
   1 -10   0   84.03    9.83
   1 -10   1    5.71    3.15
   1 -10   2   27.79    6.10
   1  -9 -12   34.50    7.88
   1  -9 -11   94.46   12.31
   1  -9 -10   69.16   10.12
   1  -9  -9   85.02   10.60
   1  -9  -8   58.54    8.33
   1  -9  -7   32.98    5.98
   1  -9  -6   84.17    9.19
   1  -9  -5  174.40   13.11
   1  -9  -4  350.67   18.60
   1  -9  -3  261.40   17.61
   1  -9  -3  325.32   13.96
   1  -9  -2   53.40    7.34
   1  -9  -2   47.37    5.56
   1  -9  -1   21.09    4.51
   1  -9  -1   25.42    4.30
   1  -9   0  109.11    9.99
   1  -9   0   97.87    9.99
   1  -9   1   13.17    3.64
   1  -9   1   13.43    3.74
   1  -9   2   20.07    4.63
   1  -8 -12   62.07   10.27
   1  -8 -11    3.78    2.45
   1  -8 -10    3.55    2.49
   1  -8  -9    5.32    2.86
   1  -8  -8   17.31    4.69
   1  -8  -7  114.46   10.97
   1  -8  -6  240.16   10.08
   1  -8  -6  224.22   14.87
   1  -8  -5  227.63   14.26
   1  -8  -4   54.53    6.63
   1  -8  -3  381.52   18.17
   1  -8  -2  629.86   26.52
   1  -8  -2  672.42   22.57
   1  -8  -1  132.68   10.80
   1  -8  -1  141.86   10.03
   1  -8   0    1.72    1.61
   1  -8   0    0.66    1.29
   1  -8   1   23.88    4.73
   1  -8   1   19.49    4.43
   1  -8   2    0.28    1.50
   1  -8   2    2.06    2.07
   1  -7 -12  153.22   15.99
   1  -7 -11   49.50    8.62
   1  -7 -10   33.31    6.75
   1  -7  -9   10.92    3.74
   1  -7  -8   38.07    6.33
   1  -7  -7   12.78    3.66
   1  -7  -6   89.86    6.09
   1  -7  -6   80.71    8.47
   1  -7  -5  475.94   15.42
   1  -7  -5  465.44   20.55
   1  -7  -4  203.78   12.28
   1  -7  -3   -0.70    1.24
   1  -7  -1  463.36   20.23
   1  -7  -1  487.88   18.81
   1  -7   0   70.78    7.08
   1  -7   0   57.97    6.56
   1  -7   1   93.92    8.91
   1  -7   1   91.21    8.35
   1  -7   2  382.42   20.26
   1  -7   2  380.26   18.16
   1  -7   3    2.81    1.69
   1  -6 -12    4.35    3.55
   1  -6 -11   66.03   10.11
   1  -6 -10   94.34   11.17
   1  -6  -9    0.32    1.21
   1  -6  -8   69.56    8.61
   1  -6  -7   66.82    7.73
   1  -6  -6   10.32    2.82
   1  -6  -5  143.92    7.72
   1  -6  -5  147.88   10.37
   1  -6  -4  836.77   22.41
   1  -6  -4  817.47   26.76
   1  -6  -3  547.63   19.76
   1  -6  -2    3.78    1.59
   1  -6  -1  129.25    9.36
   1  -6   0  158.92   10.01
   1  -6   0  137.96    9.45
   1  -6   1   13.47    2.96
   1  -6   1   12.81    3.20
   1  -6   2   31.35    4.52
   1  -6   2   30.93    5.09
   1  -6   3  322.56   18.65
   1  -6   4  364.50   21.12
   1  -5 -13  144.78   16.44
   1  -5 -12  105.98   13.46
   1  -5 -11    1.43    2.32
   1  -5 -10   50.21    8.20
   1  -5  -9   22.29    5.06
   1  -5  -8   14.98    3.93
   1  -5  -7  265.71   15.90
   1  -5  -6  640.08   24.43
   1  -5  -5  379.52   16.78
   1  -5  -4   56.97    4.50
   1  -5  -4   59.50    5.75
   1  -5  -3  842.23   22.11
   1  -5  -3  836.36   24.81
   1  -5  -2 1110.68   29.41
   1  -5   0   57.18    5.30
   1  -5   1    2.26    1.15
   1  -5   1    4.56    1.74
   1  -5   2    1.57    0.96
   1  -5   2    3.03    1.74
   1  -5   3   58.09    7.19
   1  -5   4  444.79   22.61
   1  -4 -13   71.59   11.67
   1  -4 -12  225.27   19.65
   1  -4 -11   96.77   11.98
   1  -4 -10   18.31    4.97
   1  -4  -9    2.57    2.01
   1  -4  -8   22.87    4.87
   1  -4  -7    3.52    1.89
   1  -4  -6  763.05   27.19
   1  -4  -5  698.47   23.79
   1  -4  -4 1486.23   37.40
   1  -4  -4 1434.41   37.76
   1  -4  -3   21.16    2.54
   1  -4  -3   21.50    3.05
   1  -4  -3   25.26    3.54
   1  -4  -2  259.26    9.86
   1  -4  -2  274.73   10.76
   1  -4  -1   86.76    5.47
   1  -4   0  253.44   10.85
   1  -4   1    1.13    0.79
   1  -4   1    1.79    0.72
   1  -4   2  298.88   14.84
   1  -4   2  291.50   12.20
   1  -4   3  197.96   12.87
   1  -4   4   41.43    6.25
   1  -4   5  503.56   24.44
   1  -3 -13   65.29   11.45
   1  -3 -12   12.19    4.75
   1  -3 -11  148.30   15.04
   1  -3 -10  119.15   12.65
   1  -3  -9  112.41   11.50
   1  -3  -8  127.74   11.44
   1  -3  -7  293.20   16.71
   1  -3  -6   58.69    6.59
   1  -3  -5  234.38   12.22
   1  -3  -5  257.04   12.98
   1  -3  -4 2908.22   62.62
   1  -3  -4 2772.16   62.49
   1  -3  -3 1141.99   28.32
   1  -3  -3 1093.34   29.29
   1  -3  -2   26.77    2.73
   1  -3  -2   29.28    2.87
   1  -3  -2   30.77    3.53
   1  -3  -1   93.70    5.37
   1  -3  -1   97.16    4.95
   1  -3   1   63.57    4.31
   1  -3   2  121.68    8.49
   1  -3   2  137.16    7.16
   1  -3   3  790.65   26.99
   1  -3   4  477.63   21.35
   1  -3   5   25.15    4.96
   1  -2 -12  137.00   15.77
   1  -2 -11    0.34    1.63
   1  -2 -10   35.34    7.15
   1  -2  -9   24.35    5.63
   1  -2  -8   50.46    7.46
   1  -2  -7  246.72   15.51
   1  -2  -6 1077.05   34.76
   1  -2  -5  474.57   18.24
   1  -2  -5  514.63   20.14
   1  -2  -4   96.94    6.86
   1  -2  -4   94.66    7.25
   1  -2  -3 1159.03   29.39
   1  -2  -3 1132.17   28.28
   1  -2  -2 2207.30   48.54
   1  -2  -2 2298.37   46.44
   1  -2  -1  366.29   11.21
   1  -2  -1  385.54    9.96
   1  -2  -1  361.65   12.38
   1  -2   0  477.85   13.99
   1  -2   1    2.13    0.73
   1  -2   2   37.25    4.23
   1  -2   3  124.23    8.75
   1  -2   3  118.45    7.32
   1  -2   4 3016.39   70.04
   1  -2   4 2902.25   65.56
   1  -2   5  784.52   29.22
   1  -1 -12  118.35   14.77
   1  -1 -11   73.16   10.85
   1  -1 -10   15.04    4.74
   1  -1  -9  174.20   14.97
   1  -1  -8    1.88    2.06
   1  -1  -7  172.69   12.83
   1  -1  -6   76.24    7.82
   1  -1  -5 1078.88   31.27
   1  -1  -5 1116.47   32.79
   1  -1  -4  332.68   14.22
   1  -1  -4  317.99   13.35
   1  -1  -3    3.12    1.22
   1  -1  -3    0.16    0.74
   1  -1  -2  235.94    9.35
   1  -1  -2  239.60    9.12
   1  -1  -1 1466.94   32.16
   1  -1   0    0.93    0.66
   1  -1   2 1763.29   37.48
   1  -1   3  825.36   24.86
   1  -1   3  796.44   21.86
   1  -1   4  217.69   12.23
   1  -1   4  204.28   10.41
   1  -1   5  412.78   19.00
   1   0 -12    1.06    1.72
   1   0 -11   77.59   11.45
   1   0 -10   79.49   10.77
   1   0  -9   11.71    4.01
   1   0  -8  137.53   12.45
   1   0  -7  353.22   19.39
   1   0  -6  198.13   13.04
   1   0  -5  376.88   17.18
   1   0  -4 1147.18   32.46
   1   0  -4 1195.50   31.95
   1   0  -3  334.85   13.26
   1   0  -3  326.56   12.75
   1   0  -2    4.98    1.27
   1   0  -2    4.92    1.32
   1   0  -1   80.85    4.36
   1   0  -1   87.32    4.00
   1   0   2  252.37    8.30
   1   0   3  380.68   14.21
   1   0   3  400.28   13.16
   1   0   4  564.93   19.93
   1   0   4  547.76   18.19
   1   0   5   64.88    6.66
   1   0   5   70.30    6.45
   1   1 -12   52.98   10.05
   1   1 -11    2.52    2.63
   1   1 -10   11.31    4.53
   1   1  -9    3.22    2.54
   1   1  -8   12.74    4.04
   1   1  -7  391.05   20.89
   1   1  -6 1112.57   36.41
   1   1  -5  128.15    9.87
   1   1  -4    2.58    1.36
   1   1  -4    9.41    2.42
   1   1  -3  959.79   26.49
   1   1  -3  910.85   26.30
   1   1  -2 1615.68   36.90
   1   1  -2 1629.32   33.73
   1   1  -2 1608.84   37.39
   1   1  -1  636.66   16.18
   1   1  -1  630.23   15.69
   1   1  -1  630.75   16.65
   1   1   0    9.87    1.30
   1   1   1 1296.90   27.17
   1   1   1 1247.75   27.32
   1   1   2    9.27    1.61
   1   1   2    8.54    1.44
   1   1   2    5.99    1.11
   1   1   3  250.18   10.12
   1   1   3  251.92    9.94
   1   1   4  465.02   16.87
   1   1   4  520.82   17.32
   1   1   5  633.45   21.37
   1   1   5  499.51   19.74
   1   2 -11   33.54    7.79
   1   2 -10   20.05    5.64
   1   2  -9    1.99    2.01
   1   2  -8   29.32    6.11
   1   2  -7   13.89    3.69
   1   2  -6  561.04   24.47
   1   2  -5  666.16   25.83
   1   2  -5  722.73   18.13
   1   2  -4 1737.13   45.93
   1   2  -4 1794.62   38.29
   1   2  -3   63.72    5.86
   1   2  -3   57.91    4.04
   1   2  -2   63.85    5.15
   1   2  -2   62.60    4.22
   1   2  -2   64.81    5.30
   1   2  -1    1.55    0.89
   1   2  -1    1.51    0.96
   1   2   0  387.70   12.04
   1   2   0  377.25   11.85
   1   2   1  288.22    9.90
   1   2   2 1462.37   33.18
   1   2   3  246.09    8.79
   1   2   3  249.76   10.34
   1   2   3  233.61   10.29
   1   2   3  228.38    8.73
   1   2   4   30.73    3.43
   1   2   4   31.17    3.78
   1   2   4   27.68    2.69
   1   2   5  403.19   17.43
   1   2   5  515.09   13.87
   1   2   6  546.20   14.47
   1   3 -11   39.68    8.60
   1   3 -10   40.24    8.25
   1   3  -9   14.58    4.92
   1   3  -8  228.07   17.62
   1   3  -7  177.10   14.48
   1   3  -6   28.83    5.37
   1   3  -6   17.69    2.40
   1   3  -5  399.87   19.78
   1   3  -5  406.06   13.89
   1   3  -4 1227.14   36.74
   1   3  -4 1219.68   30.27
   1   3  -3  924.07   28.22
   1   3  -3  893.67   27.68
   1   3  -2   44.31    4.69
   1   3  -2   31.70    3.89
   1   3  -1    1.33    0.70
   1   3   0   67.56    5.02
   1   3   0   61.77    4.82
   1   3   1  210.61    9.15
   1   3   2  547.07   17.03
   1   3   3  670.42   14.98
   1   3   3  677.62   15.73
   1   3   3  697.59   20.93
   1   3   4  716.02   23.71
   1   3   4  808.95   18.54
   1   3   6  418.61   13.99
   1   3   7  256.09    9.94
   1   3   8   90.51    5.09
   1   4 -10    0.31    2.25
   1   4  -9    1.10    2.84
   1   4  -8    4.45    2.56
   1   4  -7  276.83   19.02
   1   4  -6  592.64   27.40
   1   4  -6  609.29   19.61
   1   4  -5  197.26   13.98
   1   4  -5  210.52   10.55
   1   4  -4   22.09    4.35
   1   4  -3  507.18   20.66
   1   4  -2  618.45   21.48
   1   4  -2  575.53   21.35
   1   4  -2  590.52   20.86
   1   4  -1   73.31    5.75
   1   4  -1   52.21    5.17
   1   4   0  508.15   18.20
   1   4   0  497.79   18.15
   1   4   1   36.04    2.59
   1   4   1   27.02    3.49
   1   4   2   48.44    4.74
   1   4   3  878.05   27.50
   1   4   3 1093.11   23.37
   1   4   4 2950.34   55.45
   1   4   4 2402.89   61.93
   1   4   5  392.42   12.33
   1   4   8   92.15    6.43
   1   5 -10   40.35    8.73
   1   5  -9   98.62   12.99
   1   5  -8   65.19    9.91
   1   5  -7    5.66    2.74
   1   5  -6  174.95   14.68
   1   5  -5  427.54   22.35
   1   5  -4  255.81   15.77
   1   5  -3    0.58    1.09
   1   5  -2   28.55    4.63
   1   5  -2   28.34    4.44
   1   5  -1    2.48    1.44
   1   5   0  409.86   14.34
   1   5   1  110.43    5.50
   1   5   1  105.21    7.77
   1   5   2 1167.37   32.47
   1   5   3  223.14    9.06
   1   5   4  157.44    7.34
   1   5   5  859.34   22.19
   1   5   6  741.39   20.85
   1   6  -9   67.04   11.03
   1   6  -8  179.14   17.21
   1   6  -7  166.77   15.98
   1   6  -6   60.24    8.93
   1   6  -5   70.82    9.08
   1   6  -4  433.43   22.42
   1   6  -3  281.37   16.92
   1   6  -2   14.23    3.60
   1   6  -1    9.19    2.39
   1   6   0   46.27    4.64
   1   6   2  356.04    9.27
   1   6   4  369.33   13.57
   1   6   5    5.69    1.60
   1   6   6   91.63    6.15
   1   6   7   44.24    4.50
   1   7  -8   10.54    4.96
   1   7  -7  150.74   15.78
   1   7  -6  409.82   25.14
   1   7  -5  175.90   15.15
   1   7  -4  245.60   17.29
   1   7  -3    2.99    2.51
   1   7  -2  364.32   19.90
   1   7   2   20.95    2.03
   1   7   4  485.78   17.49
   1   7   5  283.89   12.46
   1   7   6    6.94    1.83
   1   7   7   28.39    3.71
   1   7   8   26.35    3.83
   1   8  -7   31.76    7.47
   1   8  -6  152.88   15.62
   1   8  -5  236.82   18.79
   1   8  -4  162.60   14.92
   1   8  -3    0.23    1.32
   1   8  -2    4.32    2.75
   1   8   2  767.31   19.11
   1   8   4    5.65    1.97
   1   8   5  350.64   15.46
   1   8   6   70.00    6.31
   1   8   7   18.84    3.27
   1   8   8    9.76    2.50
   1   9  -6    1.53    3.36
   1   9  -5   72.58   10.78
   1   9  -4  193.06   17.22
   1   9  -3  145.81   14.46
   1   9  -2    9.54    3.65
   1   9   4   73.35    7.37
   1   9   5    6.71    2.28
   1   9   6  282.71   14.54
   1   9   7   23.19    3.92
   1  10  -5   26.80    6.75
   1  10  -4   10.01    4.33
   1  10  -3   48.78    8.91
   1  10  -2   30.39    6.67
   1  10   4  604.50   24.99
   1  10   5  154.41   11.45
   1  10   6    3.49    1.74
   1  11  -3    0.95    2.66
   1  11  -2   -0.31    2.04
   1  11  -1    0.72    1.78
   1  11   4   81.57    9.04
   1  11   5  218.14   14.60
   1  12  -1   36.23    8.13
   1  12   3  212.20   16.27
   1  12   4  127.59   12.19
   1  13   3   66.22    9.65
   2 -13  -4   60.48   10.11
   2 -12  -5   -1.40    2.23
   2 -12  -4   11.13    4.28
   2 -12  -3    0.24    1.62
   2 -12  -2   22.75    6.13
   2 -11  -4   25.05    5.86
   2 -11  -3   -0.73    1.70
   2 -11  -2   10.96    3.73
   2 -11  -1    0.24    1.41
   2 -11   0   64.68    9.00
   2 -10  -8  181.15   14.95
   2 -10  -7   92.99   10.21
   2 -10  -6    0.70    1.84
   2 -10  -5   98.71    9.82
   2 -10  -3   19.55    4.85
   2 -10  -2   64.34    8.57
   2 -10  -1   71.25    8.88
   2 -10   0   18.84    4.52
   2 -10   0    5.29    2.81
   2 -10   1   44.22    6.80
   2 -10   1   40.35    7.57
   2 -10   2  276.99   20.36
   2  -9 -12   20.90    6.42
   2  -9 -11   42.28    8.07
   2  -9 -10   44.63    8.06
   2  -9  -9    4.99    2.87
   2  -9  -8   57.67    8.08
   2  -9  -7  179.25   13.72
   2  -9  -6  168.26   12.78
   2  -9  -5   29.04    5.22
   2  -9  -4    5.34    2.36
   2  -9  -2    1.57    1.25
   2  -9  -2    5.89    2.14
   2  -9  -1  151.71   12.07
   2  -9  -1  138.42   11.69
   2  -9   0  185.24   14.13
   2  -9   0  159.41   12.55
   2  -9   1   74.28    9.33
   2  -9   1   74.07    8.44
   2  -9   2   26.71    5.15
   2  -9   2   39.88    7.50
   2  -9   3  268.39   20.17
   2  -8 -12   11.88    4.44
   2  -8 -11   31.43    7.01
   2  -8 -10  101.25   11.77
   2  -8  -9  150.75   13.69
   2  -8  -8   15.80    4.27
   2  -8  -7   68.18    8.22
   2  -8  -6  521.67   19.71
   2  -8  -6  529.50   23.10
   2  -8  -5    4.46    1.68
   2  -8  -5    6.20    2.27
   2  -8  -4   89.00    8.12
   2  -8  -2    5.41    2.45
   2  -8  -1    3.04    2.01
   2  -8   0  168.83   12.91
   2  -8   0  158.97   11.61
   2  -8   1  455.89   23.05
   2  -8   1  405.07   19.58
   2  -8   2  146.59   13.51
   2  -8   2  166.37   11.99
   2  -8   3    1.20    1.84
   2  -8   4   94.14   11.89
   2  -7 -12   12.70    4.78
   2  -7 -11    3.72    2.28
   2  -7 -10    2.76    2.63
   2  -7  -9  246.37   17.36
   2  -7  -8  285.72   17.77
   2  -7  -7   80.89    7.35
   2  -7  -7   72.50    8.23
   2  -7  -6   23.88    3.81
   2  -7  -6   17.17    3.75
   2  -7  -5  171.67   10.27
   2  -7  -5  166.06   11.14
   2  -7  -4  278.59   13.41
   2  -7  -4  270.08   13.80
   2  -7  -3   60.78    6.01
   2  -7  -1  165.13   11.32
   2  -7   0   27.67    4.39
   2  -7   1  210.71   14.72
   2  -7   1  258.87   13.84
   2  -7   2  599.88   27.18
   2  -7   2  562.16   22.05
   2  -7   3  173.54   14.84
   2  -7   4   34.70    6.97
   2  -7   5   20.14    5.68
   2  -6 -12   28.21    6.68
   2  -6 -11   48.15    8.53
   2  -6 -10   39.89    7.25
   2  -6  -9    4.07    2.64
   2  -6  -8  279.53   17.38
   2  -6  -7  413.85   20.15
   2  -6  -6  235.72   13.89
   2  -6  -5    9.72    2.36
   2  -6  -5    6.34    2.05
   2  -6  -4   61.67    5.79
   2  -6  -4   59.20    5.96
   2  -6  -3   10.53    2.53
   2  -6  -3    8.68    2.26
   2  -6   0  746.48   24.48
   2  -6   1  244.98   12.41
   2  -6   2   37.42    6.11
   2  -6   2   33.16    4.37
   2  -6   3   27.52    5.70
   2  -6   4  721.38   32.35
   2  -6   5    0.64    1.44
   2  -6   6   33.39    7.47
   2  -5 -12    8.74    3.98
   2  -5 -11   34.91    7.34
   2  -5 -10  176.63   15.40
   2  -5  -9  218.05   16.15
   2  -5  -8    3.11    2.06
   2  -5  -7  211.83   13.88
   2  -5  -6  651.27   24.36
   2  -5  -5  396.64   16.85
   2  -5  -4  179.52   10.16
   2  -5  -4  159.20    9.35
   2  -5  -3   39.10    4.49
   2  -5  -3   50.98    4.67
   2  -5  -2  147.97    9.17
   2  -5  -2  149.34    7.78
   2  -5   0   89.98    6.68
   2  -5   1 1004.66   27.61
   2  -5   2  541.13   23.65
   2  -5   2  575.54   18.88
   2  -5   3    9.64    3.24
   2  -5   4   67.20    8.77
   2  -5   5   17.15    4.58
   2  -5   6   61.06    9.35
   2  -4 -12    6.79    3.41
   2  -4 -11    6.56    3.61
   2  -4 -10    4.84    2.82
   2  -4  -9  330.41   20.21
   2  -4  -8  570.74   25.90
   2  -4  -7  161.56   11.96
   2  -4  -6    2.19    1.40
   2  -4  -5  150.85    9.73
   2  -4  -4  210.86   10.51
   2  -4  -3  188.89   10.07
   2  -4  -3  177.14    8.58
   2  -4  -2  490.82   17.47
   2  -4  -2  501.66   14.78
   2  -4  -1  529.12   18.74
   2  -4   1  227.70    9.53
   2  -4   2  982.26   25.44
   2  -4   3  482.47   22.10
   2  -4   4   35.02    6.05
   2  -4   5    6.54    2.56
   2  -4   6    1.07    1.75
   2  -4   7   39.30    7.61
   2  -3 -12   21.57    6.28
   2  -3 -11  122.56   13.81
   2  -3 -10  168.90   15.44
   2  -3  -6  139.52   10.18
   2  -3  -5  241.00   12.59
   2  -3  -4   47.48    4.78
   2  -3  -3  157.57    7.72
   2  -3  -2    1.17    1.26
   2  -3  -2    1.44    0.98
   2  -3  -2    1.00    0.62
   2  -3  -1  155.74    8.67
   2  -3  -1  152.04    5.57
   2  -3   0  689.60   22.00
   2  -3   1  160.25    6.61
   2  -3   2   88.25    4.90
   2  -3   3  554.53   22.83
   2  -3   4  464.23   21.88
   2  -3   5  151.81   12.81
   2  -3   6  201.81   15.79
   2  -3   7   31.70    6.46
   2  -2 -12    6.48    4.48
   2  -2 -11   62.34   10.28
   2  -2 -10  556.35   30.07
   2  -2  -9   22.76    5.54
   2  -2  -8  304.18   19.27
   2  -2  -7  165.77   12.93
   2  -2  -6  406.04   19.62
   2  -2  -5   96.43    8.35
   2  -2  -4    0.04    0.78
   2  -2  -3   23.06    3.69
   2  -2  -2  102.94    5.00
   2  -2  -2   95.20    6.99
   2  -2  -1   79.90    5.86
   2  -2  -1   78.63    3.11
   2  -2  -1   75.69    5.98
   2  -2   0  135.07    7.85
   2  -2   1  407.84   10.19
   2  -2   4   79.74    8.07
   2  -2   4   60.22    5.54
   2  -2   5  175.56   13.01
   2  -2   6  110.92   11.01
   2  -2   7  220.96   16.74
   2  -1 -12   21.17    6.53
   2  -1 -11   16.74    5.68
   2  -1 -10   26.75    6.61
   2  -1  -9  271.80   19.25
   2  -1  -8  591.89   27.64
   2  -1  -7  124.26   11.13
   2  -1  -6   44.91    6.13
   2  -1  -5   97.47    8.31
   2  -1  -4  126.27    8.56
   2  -1  -3  617.67   21.03
   2  -1  -3  652.08   20.05
   2  -1  -2  617.64   20.00
   2  -1  -2  645.53   17.99
   2  -1  -1   60.38    4.99
   2  -1   0    0.40    0.91
   2  -1   0    2.42    0.95
   2  -1   1  354.90   13.51
   2  -1   2 1358.61   29.07
   2  -1   3  867.69   22.51
   2  -1   4    8.09    1.90
   2  -1   4    6.55    2.24
   2  -1   5   24.48    4.70
   2  -1   5   30.21    4.06
   2  -1   6    7.80    3.04
   2  -1   7   17.31    4.57
   2  -1   8  268.41   18.75
   2   0 -12   75.48   12.05
   2   0 -11   95.56   12.80
   2   0 -10   57.93    9.45
   2   0  -9    0.90    1.57
   2   0  -8  325.76   20.12
   2   0  -7  359.44   19.95
   2   0  -6  176.25   12.58
   2   0  -5    2.65    1.84
   2   0  -4    0.71    1.46
   2   0  -3  246.18   11.91
   2   0  -3  235.10   11.18
   2   0  -2 1023.17   27.73
   2   0  -2 1048.94   26.16
   2   0  -1    2.39    0.78
   2   0  -1    2.53    1.08
   2   0   0 9923.71  187.26
   2   0   0 9999.00  181.18
   2   0   0 9933.71  186.08
   2   0   1   47.63    4.08
   2   0   1   42.89    2.67
   2   0   2    4.26    0.88
   2   0   3  168.82    7.40
   2   0   4  357.56   16.00
   2   0   4  351.44   13.34
   2   0   5  226.04   13.43
   2   0   5  214.82   11.34
   2   0   6  276.54   16.14
   2   0   7  122.96   11.25
   2   0   8    6.81    2.98
   2   1 -11   25.88    6.76
   2   1 -10  250.10   20.24
   2   1  -9  197.49   16.85
   2   1  -8    3.12    2.25
   2   1  -7  227.09   15.89
   2   1  -6  382.64   19.76
   2   1  -5  604.45   23.99
   2   1  -4   48.11    5.47
   2   1  -3  348.32   15.04
   2   1  -3  368.69   14.88
   2   1  -2   33.97    3.64
   2   1  -2   19.88    3.02
   2   1  -1  427.24   14.11
   2   1  -1  404.78   12.54
   2   1   0 2766.04   55.98
   2   1   0 2697.10   54.95
   2   1   0 2759.63   53.51
   2   1   0 2781.37   55.24
   2   1   1  942.32   21.44
   2   1   1  981.62   24.09
   2   1   1  942.21   22.46
   2   1   1  993.86   22.21
   2   1   2  830.87   22.15
   2   1   2  803.06   19.16
   2   1   2  846.99   21.14
   2   1   3  313.36   10.93
   2   1   4   13.63    2.48
   2   1   5   21.15    3.45
   2   1   5   19.97    3.69
   2   1   6   38.76    5.49
   2   1   7  340.23   18.60
   2   2 -11   10.51    4.29
   2   2 -10   30.56    7.05
   2   2  -9  278.63   20.62
   2   2  -8  351.68   22.11
   2   2  -7   79.98    9.95
   2   2  -6    0.58    1.14
   2   2  -5    7.80    2.97
   2   2  -4  240.18   13.48
   2   2  -3  437.74   17.43
   2   2  -2 1524.82   35.93
   2   2  -2 1540.82   34.76
   2   2  -1  983.11   26.00
   2   2  -1  987.10   25.59
   2   2  -1  974.35   25.97
   2   2  -1 1011.04   26.46
   2   2   0    6.81    1.36
   2   2   0    5.09    1.31
   2   2   0    6.87    1.51
   2   2   0    7.96    1.76
   2   2   1  277.69    9.91
   2   2   1  248.89    8.06
   2   2   1  268.31   10.12
   2   2   1  247.89   10.58
   2   2   2 1789.92   39.29
   2   2   2 1804.13   40.48
   2   2   2 1838.54   35.08
   2   2   2 1751.45   41.10
   2   2   3  910.26   24.86
   2   2   3  859.28   23.67
   2   2   4  114.68    7.29
   2   2   5    4.42    1.66
   2   2   5    3.59    1.72
   2   2   6   50.43    5.98
   2   2   7    4.58    2.03
   2   3 -11  143.10   16.76
   2   3 -10   46.15    8.95
   2   3  -9    3.59    3.02
   2   3  -8  358.12   22.99
   2   3  -7  186.88   15.19
   2   3  -6  234.46   16.07
   2   3  -5   99.04    9.59
   2   3  -4  236.25   13.99
   2   3  -4  238.28   11.12
   2   3  -3  170.99   10.75
   2   3  -3  169.83    9.22
   2   3  -2   20.13    3.35
   2   3  -2   19.17    3.30
   2   3  -2   23.03    3.25
   2   3  -1  453.82   16.00
   2   3  -1  481.87   16.49
   2   3   0  995.74   28.13
   2   3   0 1050.70   27.88
   2   3   1  170.78    8.61
   2   3   1  166.16    8.60
   2   3   1  148.94    8.57
   2   3   1  166.42    6.70
   2   3   2    8.06    1.34
   2   3   2    8.25    0.98
   2   3   2    8.45    1.92
   2   3   2    5.02    1.65
   2   3   3  416.01   15.82
   2   3   3  460.01   16.08
   2   3   4    4.16    1.60
   2   3   4    3.49    1.40
   2   3   5  589.75   19.35
   2   3   5  576.98   18.61
   2   3   6  351.95   15.59
   2   3   6  327.92   13.10
   2   3   7  226.40   13.35
   2   4 -10  216.52   20.30
   2   4  -9  231.67   19.87
   2   4  -8    1.76    2.65
   2   4  -7   19.68    5.30
   2   4  -6   96.52   10.55
   2   4  -6   88.35    6.81
   2   4  -5  143.62   12.30
   2   4  -5  163.73    9.65
   2   4  -4  162.47   12.10
   2   4  -4  171.51   10.01
   2   4  -3  375.88   17.89
   2   4  -3  379.00   15.73
   2   4  -2  323.53   14.39
   2   4  -2  344.69   15.91
   2   4  -1    8.69    2.40
   2   4   0  212.36   10.93
   2   4   0  205.15   10.98
   2   4   0  190.74   10.68
   2   4   1  293.39   13.31
   2   4   1  325.57   13.79
   2   4   1  328.30   14.25
   2   4   2   24.65    2.28
   2   4   2   25.62    3.63
   2   4   2   19.30    3.31
   2   4   3   80.52    6.66
   2   4   3   79.64    6.63
   2   4   4   11.28    1.81
   2   4   4   10.01    2.41
   2   4   5    0.93    1.11
   2   4   5    0.71    0.80
   2   4   6   65.97    5.82
   2   4   6   55.31    5.43
   2   4   7  312.59   13.75
   2   4   8  538.91   18.72
   2   5  -9  184.19   18.12
   2   5  -8  168.54   16.37
   2   5  -7   62.09    9.32
   2   5  -6    3.20    2.11
   2   5  -5    5.19    2.64
   2   5  -4   28.24    5.22
   2   5  -3  138.79   11.09
   2   5  -2  900.28   30.62
   2   5   4   61.10    2.85
   2   5   4   68.26    3.65
   2   5   5   39.58    3.33
   2   6  -9   15.37    5.53
   2   6  -8   73.30   11.20
   2   6  -7  142.88   14.90
   2   6  -6   55.82    8.75
   2   6  -5   30.56    5.95
   2   6  -4  342.92   20.08
   2   6  -3   60.70    7.77
   2   6  -2  184.33   13.08
   2   6  -1  822.71   27.00
   2   6   4   56.50    3.75
   2   6   5  208.97    7.07
   2   7  -8    2.33    2.30
   2   7  -7   16.81    5.46
   2   7  -6   49.69    8.70
   2   7  -5   15.48    4.80
   2   7  -4  168.99   14.57
   2   7  -3   77.59    9.27
   2   7  -2   62.23    8.07
   2   7   0  941.40   28.46
   2   7   1  800.69   23.07
   2   7   2  123.36    5.96
   2   7   4    9.59    1.88
   2   7   5    8.87    1.66
   2   7   6  108.61    5.50
   2   7   7  309.76   10.31
   2   8  -7   13.69    5.00
   2   8  -6    4.30    2.98
   2   8  -5    6.67    3.73
   2   8  -4    8.60    3.45
   2   8  -3  191.58   15.90
   2   8  -2  488.29   25.37
   2   8   0    2.14    1.39
   2   8   1  423.65   15.76
   2   8   4  370.82   14.67
   2   8   5   28.19    3.48
   2   8   6  153.81    7.76
   2   8   7   54.12    4.21
   2   9  -6   70.37   11.35
   2   9  -5   45.03    8.62
   2   9  -4  101.83   12.56
   2   9  -3   50.96    8.63
   2   9  -2   90.08   11.13
   2   9   4   68.17    6.40
   2   9   5    5.78    1.84
   2   9   6  466.39   16.76
   2  10  -5   36.64    8.31
   2  10  -4   84.16   12.10
   2  10  -3  216.85   18.85
   2  10  -2  141.06   14.77
   2  10  -1   17.65    5.14
   2  10   4    4.22    1.90
   2  10   5   19.43    3.65
   2  11  -3   55.57    9.97
   2  11  -2  245.53   20.82
   2  11  -1  119.84   14.00
   2  11   4   40.72    5.96
   2  12  -1  191.62   18.61
   3 -11  -4   32.32    6.79
   3 -10  -3   20.70    5.11
   3 -10  -2  242.05   16.75
   3 -10   0   40.16    7.24
   3 -10   1    3.00    2.58
   3 -10   2    2.99    2.88
   3 -10   3    4.76    3.62
   3 -10   4   64.40   11.11
   3  -9  -2    2.06    1.37
   3  -9  -1  100.81    9.73
   3  -9   0  160.04   14.31
   3  -9   0  166.56   12.41
   3  -9   1   39.05    7.29
   3  -9   2    9.40    3.87
   3  -9   3   59.43    9.90
   3  -9   4   16.82    6.11
   3  -9   5   38.94    8.72
   3  -8  -7   46.95    6.59
   3  -8  -6   79.79    8.20
   3  -8  -6   87.66    8.39
   3  -8  -5   36.94    5.53
   3  -8  -5   33.21    4.83
   3  -8  -4   81.92    7.21
   3  -8  -1   36.50    5.47
   3  -8   0   30.70    4.85
   3  -8   1   11.81    3.22
   3  -8   1   15.37    4.60
   3  -8   2   25.40    6.01
   3  -8   3   77.13   10.77
   3  -8   4  317.43   23.51
   3  -8   5   87.21   12.81
   3  -8   6    1.16    1.47
   3  -7 -11   52.48    8.81
   3  -7 -10   13.31    4.14
   3  -7  -9   55.82    7.94
   3  -7  -8    6.60    2.62
   3  -7  -8    3.85    2.36
   3  -7  -7   11.91    3.32
   3  -7  -7   10.83    3.19
   3  -7  -6  106.59    9.42
   3  -7  -6  112.66    9.33
   3  -7  -5  330.91   16.90
   3  -7  -5  283.92   14.48
   3  -7  -4   33.16    5.12
   3  -7  -4   26.23    3.92
   3  -7  -3   64.89    7.38
   3  -7  -1  397.21   18.28
   3  -7   0   40.14    5.15
   3  -7   1   28.64    4.31
   3  -7   2  139.45   13.21
   3  -7   2  103.64    8.17
   3  -7   3   30.92    6.62
   3  -7   4   14.79    4.86
   3  -7   5  332.22   24.13
   3  -7   6  307.68   24.27
   3  -7   7   23.83    7.29
   3  -6 -12   17.96    5.58
   3  -6 -11  103.07   12.28
   3  -6 -10  101.39   11.47
   3  -6  -9    3.15    2.08
   3  -6  -8   26.07    5.03
   3  -6  -7   11.46    3.11
   3  -6  -6    2.88    2.04
   3  -6  -6    3.81    1.98
   3  -6  -5  207.13   12.98
   3  -6  -5  213.72   11.73
   3  -6  -4  615.04   23.81
   3  -6  -4  631.42   20.54
   3  -6  -3  283.35   15.39
   3  -6  -3  308.24   12.24
   3  -6  -2    5.96    2.53
   3  -6   0  215.42   11.43
   3  -6   1   61.84    5.64
   3  -6   2  116.47    7.80
   3  -6   3  227.17   17.23
   3  -6   4  148.07   14.44
   3  -6   5   56.79    9.25
   3  -6   6  320.51   24.00
   3  -6   7  200.87   19.71
   3  -5 -12   32.11    7.44
   3  -5 -11   16.85    5.22
   3  -5 -10   81.80   10.34
   3  -5  -9   35.24    6.40
   3  -5  -8    8.51    3.05
   3  -5  -7   94.77    9.04
   3  -5  -6  173.81   11.33
   3  -5  -5   55.30    6.52
   3  -5  -5   50.64    5.38
   3  -5  -4  174.13   11.57
   3  -5  -4  188.38    9.80
   3  -5  -3  579.15   22.76
   3  -5  -3  628.10   18.13
   3  -5  -2  500.60   20.92
   3  -5  -1    8.22    2.46
   3  -5   0   17.20    2.97
   3  -5   1    1.46    1.28
   3  -5   2    5.97    1.62
   3  -5   3  164.35   13.98
   3  -5   4  444.50   24.63
   3  -5   5  251.01   19.18
   3  -5   6   23.92    6.34
   3  -5   7  287.70   22.77
   3  -5   8  163.95   17.74
   3  -4 -12  196.33   18.46
   3  -4 -11   57.79    9.33
   3  -4 -10    0.47    1.43
   3  -4  -9   56.93    8.13
   3  -4  -8    9.90    3.35
   3  -4  -7   43.50    6.14
   3  -4  -6  543.57   21.75
   3  -4  -5  347.82   15.31
   3  -4  -4  284.34   11.98
   3  -4  -3  129.76    9.65
   3  -4  -3  119.10    6.46
   3  -4  -2  488.32   19.73
   3  -4  -2  485.94   13.14
   3  -4  -1   58.22    7.13
   3  -4   0   40.76    5.50
   3  -4   1   23.56    2.64
   3  -4   2  108.38    5.73
   3  -4   4  218.65   16.04
   3  -4   5  582.03   29.11
   3  -4   6  290.09   20.92
   3  -4   7    3.73    3.09
   3  -4   8  140.99   15.87
   3  -3 -12   72.17   11.23
   3  -3 -11  190.12   17.43
   3  -3 -10   89.43   11.21
   3  -3  -6   25.08    4.35
   3  -3  -5  454.26   18.12
   3  -3  -4 1799.32   42.61
   3  -3  -3  405.14   13.21
   3  -3  -2   59.59    6.22
   3  -3  -2   71.99    3.68
   3  -3  -1  271.38   14.07
   3  -3   0  158.66   10.50
   3  -3   1   24.35    2.31
   3  -3   5  133.53   12.58
   3  -3   6  725.94   33.08
   3  -3   7  299.65   21.44
   3  -3   8   29.43    7.06
   3  -3   9   22.04    6.24
   3  -2 -12   36.33    8.34
   3  -2 -11   34.16    7.87
   3  -2 -10  119.22   13.77
   3  -2  -9    7.42    3.56
   3  -2  -8   97.61   10.93
   3  -2  -7  209.41   15.01
   3  -2  -6  468.29   21.88
   3  -2  -5   26.34    4.62
   3  -2  -2  738.80   17.81
   3  -2  -1    2.30    1.51
   3  -2   0   17.99    3.30
   3  -2   1    6.42    2.21
   3  -2   5  437.22   22.32
   3  -2   5  392.45   16.37
   3  -2   6   13.18    4.25
   3  -2   7  336.58   22.07
   3  -2   8  251.47   20.00
   3  -2   9   12.27    4.55
   3  -1 -11   53.42    9.75
   3  -1 -10    2.00    1.54
   3  -1  -9   46.07    8.13
   3  -1  -8   42.49    7.29
   3  -1  -7    1.35    1.34
   3  -1  -6  349.01   18.45
   3  -1  -5  960.58   31.48
   3  -1  -4   55.78    5.93
   3  -1  -3  464.41   16.88
   3  -1  -2 1006.43   25.86
   3  -1  -1  986.60   29.15
   3  -1  -1 1000.80   29.30
   3  -1   0    9.25    2.30
   3  -1   0    6.64    2.01
   3  -1   1  122.43    8.57
   3  -1   1  121.98    4.06
   3  -1   2  577.53   21.53
   3  -1   3  184.69    7.52
   3  -1   4  844.50   23.23
   3  -1   5 1118.01   37.60
   3  -1   5 1081.84   30.20
   3  -1   6  930.33   35.57
   3  -1   7   55.84    8.44
   3  -1   8   77.51   10.60
   3  -1   9   29.16    7.02
   3   0 -11  111.10   14.13
   3   0 -10   69.98   10.53
   3   0  -9   16.92    5.04
   3   0  -8  102.82   11.37
   3   0  -7  171.43   13.76
   3   0  -6   13.24    3.65
   3   0  -5  688.08   25.87
   3   0  -4 1452.66   39.66
   3   0  -3  225.50   11.21
   3   0  -2  116.88    6.91
   3   0  -1  485.46   13.94
   3   0  -1  478.88   17.69
   3   0   0  113.14    7.90
   3   0   0  105.67    3.71
   3   0   0  104.62    4.61
   3   0   0  109.60    7.21
   3   0   1  142.00    8.90
   3   0   1  158.79    6.10
   3   0   1  149.23    8.27
   3   0   1  156.06    5.56
   3   0   2  762.92   24.63
   3   0   3 1046.21   23.91
   3   0   4  394.65   13.72
   3   0   5  112.91    7.70
   3   0   6 1169.16   39.44
   3   0   7  557.92   26.64
   3   0   8   52.93    8.31
   3   0   9   24.56    6.10
   3   1 -11    9.68    4.66
   3   1 -10   30.34    7.18
   3   1  -9    6.76    3.71
   3   1  -8   33.15    6.69
   3   1  -7  316.06   19.49
   3   1  -6  652.19   27.71
   3   1  -5    7.28    2.81
   3   1  -4  256.36   13.90
   3   1  -3  985.67   28.93
   3   1  -2  567.51   20.26
   3   1  -2  549.93   18.04
   3   1  -1   33.13    4.08
   3   1  -1   40.17    3.57
   3   1   0   66.91    5.51
   3   1   0  114.42    5.14
   3   1   0  126.52    6.81
   3   1   1 1035.20   28.50
   3   1   1 1026.75   24.69
   3   1   1 1017.46   26.37
   3   1   1 1010.06   23.96
   3   1   2   73.98    6.18
   3   1   2   76.49    3.71
   3   1   2   69.96    4.96
   3   1   3  430.39   13.01
   3   1   4 1236.87   30.69
   3   1   5  872.50   25.46
   3   1   6   52.97    6.87
   3   1   7  870.77   33.28
   3   1   8   86.26   10.21
   3   1   9  120.15   12.58
   3   2 -11   16.02    5.69
   3   2 -10    2.46    2.51
   3   2  -9    1.32    1.92
   3   2  -8    7.67    3.77
   3   2  -7   75.36    9.76
   3   2  -6  759.56   30.82
   3   2  -5  622.74   25.69
   3   2  -4  504.36   21.05
   3   2  -3  608.24   22.12
   3   2  -2  636.67   20.42
   3   2  -2  532.71   20.87
   3   2  -1   65.12    5.60
   3   2  -1   57.08    4.94
   3   2  -1   58.37    5.60
   3   2   0   13.07    2.48
   3   2   0   10.21    2.20
   3   2   0   15.76    2.34
   3   2   0   11.76    2.42
   3   2   1   26.65    3.17
   3   2   1   25.53    3.14
   3   2   1   24.52    3.46
   3   2   1   29.08    3.41
   3   2   2  939.41   26.25
   3   2   2  930.98   25.12
   3   2   2  928.63   22.46
   3   2   3  299.93   13.28
   3   2   3  318.93   13.20
   3   2   4  127.44    7.41
   3   2   4  116.72    8.12
   3   2   5  916.98   27.07
   3   2   6  479.16   21.27
   3   2   7   35.75    5.75
   3   2   8   75.17    9.12
   3   2   9  205.08   16.00
   3   3 -10   45.63    9.08
   3   3  -9    8.51    4.21
   3   3  -8  139.32   14.33
   3   3  -7   78.64    9.96
   3   3  -6   19.08    4.80
   3   3  -5  807.37   31.06
   3   3  -4 1449.02   43.06
   3   3  -3  450.01   19.39
   3   3  -2   86.91    7.22
   3   3  -1  171.41   10.34
   3   3  -1  179.45    9.87
   3   3  -1  173.86   10.36
   3   3   0   36.79    4.28
   3   3   0   35.45    3.95
   3   3   0   28.48    4.13
   3   3   0   42.11    4.57
   3   3   1    3.86    1.12
   3   3   1    4.88    1.55
   3   3   1    3.77    1.54
   3   3   1    2.12    1.10
   3   3   2  333.23   12.81
   3   3   2  332.63   13.52
   3   3   3  711.52   21.35
   3   3   3  657.60   21.92
   3   3   5  347.50   15.22
   3   3   6 1235.35   36.63
   3   3   7  356.92   18.10
   3   3   8   -0.07    1.25
   3   3   9    8.73    3.39
   3   4 -10   16.24    5.45
   3   4  -9   10.84    4.75
   3   4  -8   16.52    5.12
   3   4  -7  304.26   20.77
   3   4  -6  403.22   22.89
   3   4  -5    7.79    3.11
   3   4  -4  385.65   19.89
   3   4  -3 1008.05   33.08
   3   4  -2  333.14   16.15
   3   4  -1   68.35    6.44
   3   4  -1   66.99    6.50
   3   4   0   24.59    3.45
   3   4   1   32.36    4.24
   3   4   1   27.00    3.13
   3   4   2    0.75    0.49
   3   4   2    0.48    0.79
   3   4   3  766.20   21.88
   3   4   3  772.34   16.53
   3   4   6    3.73    1.60
   3   4   7  506.20   21.09
   3   4   8  317.12   17.38
   3   5  -9   20.60    6.06
   3   5  -8   22.41    6.34
   3   5  -7   21.24    5.56
   3   5  -6  416.46   24.45
   3   5  -5  510.21   25.91
   3   5  -4   63.81    8.08
   3   5  -3  292.58   16.93
   3   5  -2  536.31   22.74
   3   5  -1   47.74    5.96
   3   5   0  106.16    7.90
   3   5   1    6.96    2.23
   3   5   2  419.77   13.57
   3   5   3   27.23    3.15
   3   5   3   22.44    2.01
   3   5   6  857.73   25.86
   3   5   7   55.66    5.92
   3   5   8   40.04    5.46
   3   6  -8  105.50   13.59
   3   6  -7  105.38   13.30
   3   6  -6   -1.49    2.09
   3   6  -5  279.73   19.37
   3   6  -4  615.60   28.19
   3   6  -3  241.92   16.09
   3   6  -2   59.27    7.44
   3   6  -1  121.85   10.34
   3   6   3  994.92   24.11
   3   6   3  932.77   23.42
   3   6   6  818.02   23.05
   3   6   7  340.77   14.37
   3   7  -8   41.28    8.86
   3   7  -7  114.48   14.18
   3   7  -6  320.51   23.01
   3   7  -5   48.61    8.32
   3   7  -4  586.80   29.03
   3   7  -3  139.26   12.99
   3   7  -2  318.50   19.15
   3   7  -1   30.40    5.57
   3   7   3  407.17   12.65
   3   7   5  466.02   12.34
   3   8  -7   73.01   11.88
   3   8  -6  220.53   19.88
   3   8  -5  300.37   22.21
   3   8  -4   59.25    9.27
   3   8  -3   73.79   10.07
   3   8  -2  165.49   14.51
   3   8  -1  124.68   12.08
   3   8   1  214.05   11.56
   3   8   2  571.03   18.31
   3   8   3   85.26    4.60
   3   8   3   96.97    5.18
   3   8   5  539.65   14.65
   3   9  -6   16.62    5.79
   3   9  -5  183.16   17.90
   3   9  -4  371.94   24.98
   3   9  -3  112.43   13.12
   3   9  -2    7.10    3.38
   3   9  -1   16.96    4.84
   3  10  -4   75.12   11.53
   3  10  -3  144.62   15.55
   3  10  -2   64.97   10.16
   3  10  -1   -1.05    1.62
   3  11  -3   32.94    7.95
   3  11  -2   19.80    6.03
   3  11  -1   15.92    4.91
   3  12  -1    1.20    2.22
   3  12   0    2.16    2.77
   4 -10   1  121.96   14.32
   4 -10   2  184.48   18.39
   4 -10   3   22.69    6.79
   4  -9   1    0.69    1.66
   4  -9   2  123.05   14.48
   4  -9   3  185.25   18.45
   4  -9   4   59.59   10.87
   4  -8  -5   28.82    5.70
   4  -8  -4   33.60    6.00
   4  -8  -2   11.05    3.19
   4  -8   2    4.25    3.19
   4  -8   3   81.77   11.77
   4  -8   4  120.03   14.85
   4  -8   5   59.70   10.91
   4  -7  -8   44.03    7.16
   4  -7  -7    3.91    2.45
   4  -7  -6   83.27    9.21
   4  -7  -5   35.26    5.96
   4  -7  -4   58.94    7.77
   4  -7  -3   14.61    3.94
   4  -7  -1   47.25    5.81
   4  -7   3   34.75    7.37
   4  -7   4    6.55    3.36
   4  -7   5   29.33    7.46
   4  -7   6    7.12    3.57
   4  -6  -7  126.50   11.85
   4  -6  -6    2.21    1.93
   4  -6  -5   40.55    6.30
   4  -6  -4   60.37    7.63
   4  -6  -3    7.50    2.59
   4  -6  -2   85.72    9.25
   4  -6   0  167.09    9.59
   4  -6   4  254.31   20.18
   4  -6   5   16.05    5.44
   4  -6   6    1.29    2.49
   4  -6   7   18.89    6.43
   4  -5 -10  143.75   13.80
   4  -5  -9   29.33    5.81
   4  -5  -8   86.13    9.11
   4  -5  -7  352.37   17.59
   4  -5  -6  215.78   12.19
   4  -5  -5   57.76    7.48
   4  -5  -5   45.47    4.78
   4  -5  -4   20.35    4.31
   4  -5  -4   14.85    2.26
   4  -5  -3   20.15    4.34
   4  -5  -3   10.37    1.48
   4  -5  -2   12.05    3.28
   4  -5  -1  406.37   20.82
   4  -5   0  470.92   16.49
   4  -5   1  374.84   12.85
   4  -5   4  204.05   17.23
   4  -5   5    8.53    4.07
   4  -5   6   13.31    5.08
   4  -5   7   49.76    9.77
   4  -5   8   38.57    8.94
   4  -4 -12    2.00    2.28
   4  -4 -11    1.89    2.03
   4  -4 -10   99.87   11.54
   4  -4  -9  301.18   19.29
   4  -4  -8  164.14   12.95
   4  -4  -7   14.69    3.71
   4  -4  -6  155.05   10.61
   4  -4  -5  124.97    8.26
   4  -4  -4   67.67    7.93
   4  -4  -4   70.96    5.18
   4  -4  -3  167.70   12.23
   4  -4  -3  154.06    6.25
   4  -4  -2  495.99   22.14
   4  -4  -1  220.20   14.34
   4  -4   0   60.81    7.53
   4  -4   1  707.58   17.94
   4  -4   5    6.71    3.53
   4  -4   6    8.41    3.63
   4  -4   7   58.33    9.97
   4  -4   8  117.75   15.11
   4  -4   9  137.60   17.10
   4  -3 -12   32.94    7.71
   4  -3 -11   98.28   12.59
   4  -3 -10   12.23    4.36
   4  -3  -9  144.03   13.43
   4  -3  -8  456.78   23.25
   4  -3  -7  191.38   13.23
   4  -3  -6   -0.58    0.87
   4  -3  -5    6.69    1.99
   4  -3  -4   24.92    3.27
   4  -3  -3   17.40    3.94
   4  -3  -3   24.90    2.51
   4  -3  -2  144.94   11.07
   4  -3  -1  547.26   23.12
   4  -3   0  423.48   20.27
   4  -3   1    7.37    1.11
   4  -3   1    7.46    2.46
   4  -3   6   63.38    9.58
   4  -3   7    6.26    3.24
   4  -3   8    3.41    4.24
   4  -3   9  248.02   22.25
   4  -2 -11  118.73   14.69
   4  -2 -10  509.62   30.00
   4  -2  -9    5.03    3.22
   4  -2  -8    2.04    1.92
   4  -2  -7  293.68   18.55
   4  -2  -6  191.03   13.70
   4  -2  -2  104.90    9.21
   4  -2  -2   95.57    4.30
   4  -2  -1  251.75   14.52
   4  -2   0  797.90   28.53
   4  -2   1  507.39   22.29
   4  -2   6   67.40    9.46
   4  -2   7  134.95   14.28
   4  -2   8  177.77   17.31
   4  -2   9    2.12    3.11
   4  -2  10  144.73   17.01
   4  -1 -11    1.96    3.04
   4  -1 -10  145.90   15.64
   4  -1  -9  280.89   20.61
   4  -1  -8  201.64   16.19
   4  -1  -7    9.49    3.45
   4  -1  -6  139.80   11.67
   4  -1  -5   15.26    3.39
   4  -1  -4   10.63    2.78
   4  -1  -3  158.53    9.31
   4  -1  -1  166.65   11.37
   4  -1  -1  148.45    5.25
   4  -1   0   92.00    8.34
   4  -1   1  692.34   25.58
   4  -1   1  645.25   15.22
   4  -1   2  850.20   30.01
   4  -1   5    2.78    1.45
   4  -1   6   17.80    3.29
   4  -1   6   17.58    4.73
   4  -1   7   61.85    9.24
   4  -1   8  271.17   20.63
   4  -1   9  246.21   20.75
   4  -1  10   16.70    5.43
   4   0 -11   85.56   12.66
   4   0 -10    0.99    2.45
   4   0  -9  125.01   13.70
   4   0  -8  408.48   23.92
   4   0  -7  159.05   13.70
   4   0  -6   -0.38    1.06
   4   0  -5   63.36    7.23
   4   0  -4    0.65    1.05
   4   0  -3   25.03    3.75
   4   0  -2  497.61   16.60
   4   0  -1   60.30    4.18
   4   0  -1   59.62    4.01
   4   0   0 2468.92   61.98
   4   0   0 2558.74   51.72
   4   0   1  282.15   14.90
   4   0   1  305.30    9.68
   4   0   1  287.18    9.51
   4   0   2  446.66   19.83
   4   0   4   42.27    3.41
   4   0   5   12.48    2.34
   4   0   6   56.28    5.58
   4   0   7   38.94    7.07
   4   0   8    9.89    4.11
   4   0   9  250.20   20.16
   4   0  10  268.18   22.01
   4   0  11   27.28    7.12
   4   1 -10  174.08   17.40
   4   1  -9   38.00    7.73
   4   1  -8   91.84   11.31
   4   1  -7  407.20   23.05
   4   1  -6  167.91   13.46
   4   1  -5   91.63    9.06
   4   1  -4    0.43    1.04
   4   1  -3  122.95    8.84
   4   1  -2    1.15    0.84
   4   1  -1  564.80   17.60
   4   1  -1  549.73   16.61
   4   1  -1  545.30   19.68
   4   1   0 2729.98   65.00
   4   1   0 2736.19   57.20
   4   1   0 2720.20   54.41
   4   1   0 2783.80   59.04
   4   1   1  675.44   24.03
   4   1   1  699.95   18.92
   4   1   1  653.85   14.60
   4   1   1  674.69   21.89
   4   1   1  648.88   18.43
   4   1   2   16.30    3.34
   4   1   2   16.22    2.44
   4   1   3   73.07    7.42
   4   1   3   74.72    3.90
   4   1   4  187.84    8.17
   4   1   5   40.09    4.18
   4   1   6   29.58    4.17
   4   1   7  163.91   13.94
   4   1   8  117.12   12.37
   4   1   9   -0.33    1.71
   4   1  10  235.14   19.85
   4   1  11  217.51   19.69
   4   2 -10  127.26   15.20
   4   2  -9  320.72   23.30
   4   2  -8  104.82   12.38
   4   2  -7   32.92    6.55
   4   2  -6  142.98   12.73
   4   2  -5   53.22    7.23
   4   2  -4   93.60    8.70
   4   2  -3  217.62   12.53
   4   2  -2  815.08   25.50
   4   2  -1  331.48   13.96
   4   2  -1  330.42   13.16
   4   2   0  276.35   13.14
   4   2   0  267.06   11.86
   4   2   0  271.20   10.51
   4   2   0  278.26   12.68
   4   2   1  960.52   29.84
   4   2   1  962.63   26.49
   4   2   1  937.51   23.19
   4   2   1  981.46   27.32
   4   2   1  971.48   26.01
   4   2   2 1310.34   36.62
   4   2   2 1312.83   33.11
   4   2   2 1261.11   32.26
   4   2   3  280.52   14.52
   4   2   3  286.91   10.37
   4   2   3  297.05   13.27
   4   2   4    1.69    1.34
   4   2   4    1.40    0.93
   4   2   5   24.21    3.42
   4   2   6    1.33    1.23
   4   2   7   50.40    7.32
   4   2   8 1119.17   41.01
   4   2   9   44.14    7.63
   4   2  10   53.44    9.07
   4   3 -10    5.46    3.93
   4   3  -9   48.00    9.28
   4   3  -8  465.86   28.12
   4   3  -7  120.61   12.97
   4   3  -6   22.81    5.30
   4   3  -5    1.97    1.91
   4   3  -4    7.97    2.73
   4   3  -3    3.77    1.99
   4   3  -2  274.14   13.97
   4   3  -1  735.12   23.51
   4   3   0  494.25   18.35
   4   3   0  477.70   18.20
   4   3   0  494.86   17.20
   4   3   1   24.42    3.36
   4   3   1   21.25    3.32
   4   3   1   24.78    3.97
   4   3   1   23.17    3.50
   4   3   2  412.02   17.32
   4   3   2  439.25   17.03
   4   3   2  459.44   15.05
   4   3   3  668.16   23.34
   4   3   4    3.67    1.39
   4   3   5  238.66   11.90
   4   3   7   33.49    5.66
   4   3   8  110.74   11.03
   4   3   9  227.45   17.03
   4   3  10  474.21   26.62
   4   4  -9   87.94   13.26
   4   4  -8   63.02   10.19
   4   4  -7  128.63   13.68
   4   4  -6   94.85   11.20
   4   4  -5   84.87    9.84
   4   4  -4  119.35   11.00
   4   4  -3  243.61   14.88
   4   4  -2   87.45    8.10
   4   4  -1  188.70   11.52
   4   4   0  718.03   23.64
   4   4   0  711.81   23.78
   4   4   1  540.34   18.34
   4   4   2   -0.31    0.80
   4   4   2    0.41    0.59
   4   4   3  238.58   12.29
   4   4   3  252.69    8.93
   4   4   4  128.08    8.99
   4   4   7  277.88   16.11
   4   4   8  189.67   13.88
   4   4   9   -0.83    1.75
   4   4  10  258.40   18.41
   4   5  -9  232.84   21.68
   4   5  -8   87.09   12.36
   4   5  -7   -0.75    1.72
   4   5  -6   21.19    5.34
   4   5  -5   18.90    4.86
   4   5  -4   31.67    5.89
   4   5  -3  113.60   10.50
   4   5  -2  604.94   24.87
   4   5  -1  400.33   18.90
   4   5   1  277.34   12.67
   4   5   2  578.62   17.69
   4   5   2  569.22   20.44
   4   5   3   50.81    5.23
   4   5   3   49.23    3.57
   4   5   4   37.34    4.55
   4   5   7  157.11   11.26
   4   5   8  498.40   22.47
   4   5   9  249.64   16.40
   4   6  -8  152.55   16.79
   4   6  -7   91.89   12.38
   4   6  -6   26.94    6.63
   4   6  -5   57.95    8.89
   4   6  -4  128.62   12.75
   4   6  -3   81.18    9.48
   4   6  -2  198.82   14.34
   4   6  -1  545.84   23.99
   4   6   1    2.20    1.23
   4   6   2  204.01    9.95
   4   6   3  188.87    9.95
   4   6   3  172.57    7.61
   4   6   4   20.34    3.11
   4   6   7   72.14    7.08
   4   6   8   11.70    3.10
   4   6   9  314.05   17.41
   4   7  -7   51.69    9.70
   4   7  -6   80.74   11.65
   4   7  -5   10.79    4.52
   4   7  -4   83.19   10.63
   4   7  -3   17.39    4.84
   4   7  -2    3.90    2.75
   4   7  -1  246.52   16.54
   4   7   2    6.82    1.98
   4   7   3   64.61    5.43
   4   7   3   62.91    4.84
   4   7   4   13.25    1.53
   4   7   4   15.14    2.60
   4   7   6  215.52   10.63
   4   7   7  251.89   12.28
   4   8  -6   28.16    7.23
   4   8  -5    1.94    3.09
   4   8  -4   26.18    6.11
   4   8  -3  158.08   15.07
   4   8  -2  234.50   17.62
   4   8  -1   77.59    9.61
   4   8   3   14.16    2.56
   4   8   4  182.77    8.72
   4   9  -5   14.61    5.50
   4   9  -4    8.43    3.82
   4   9  -3    5.49    3.28
   4   9  -2  189.72   16.82
   4   9  -1  369.41   23.14
   4  10  -4   91.90   12.96
   4  10  -3  112.69   13.87
   4  10  -2   10.93    4.27
   4  10  -1  140.19   14.84
   4  11  -2  224.87   20.46
   4  11  -1   24.86    7.16
   4  11   0   28.22    7.03
   4  12   0   43.38    9.01
   5  -9   1   17.12    5.66
   5  -9   2   -1.97    3.12
   5  -8  -5    1.54    1.12
   5  -8  -4  153.41   14.35
   5  -8   3   32.64    7.92
   5  -7  -7   37.95    6.96
   5  -7  -6   77.55    9.93
   5  -7  -5  102.68   11.37
   5  -7  -4    2.38    2.17
   5  -7  -3  123.29   12.61
   5  -7   3   98.67   13.22
   5  -7   4   32.71    7.97
   5  -7   5  187.65   19.73
   5  -6  -9    3.32    2.06
   5  -6  -8    0.77    1.61
   5  -6  -7    1.54    1.75
   5  -6  -6   36.70    6.77
   5  -6  -5  159.70   14.02
   5  -6  -4  254.15   17.83
   5  -6  -3   71.91    9.32
   5  -6  -2   58.54    8.44
   5  -6   4    8.20    4.23
   5  -6   5   82.63   12.64
   5  -6   6  256.37   23.25
   5  -5  -7   12.96    4.21
   5  -5  -6   15.87    4.55
   5  -5  -5    5.74    3.26
   5  -5  -4  190.73   15.08
   5  -5  -3  322.84   19.80
   5  -5  -2  193.18   15.21
   5  -5  -1   16.95    4.60
   5  -5   5   39.91    8.48
   5  -5   6   40.28    8.91
   5  -5   7  194.11   20.18
   5  -4  -5   83.30    9.93
   5  -4  -4   18.95    4.74
   5  -4  -3  144.90   12.68
   5  -4  -2  369.26   20.99
   5  -4  -1   73.98    9.15
   5  -4   0   29.41    5.84
   5  -4   6   59.07   10.32
   5  -4   7    1.86    2.47
   5  -4   8  144.30   17.55
   5  -3  -7   -0.90    1.06
   5  -3  -6   44.17    5.60
   5  -3  -5  106.07    7.69
   5  -3  -4  512.26   24.47
   5  -3  -4  339.10   12.64
   5  -3  -3   78.61    9.30
   5  -3  -2   54.95    7.50
   5  -3  -1  153.46   12.88
   5  -3   0  143.94   12.52
   5  -3   1   32.54    5.91
   5  -3   6  353.62   24.57
   5  -3   7  132.10   15.43
   5  -3   8    2.80    1.79
   5  -2  -3  366.84   20.14
   5  -2  -3  261.23    9.97
   5  -2  -2  169.64   13.31
   5  -2  -1   22.15    4.65
   5  -2   0   29.91    5.52
   5  -2   1  109.20   10.73
   5  -2   1   87.36    3.56
   5  -2   2  114.08   11.13
   5  -2   7  228.51   19.71
   5  -2   8  191.00   18.72
   5  -2   9   13.99    5.71
   5  -1 -10   16.74    5.66
   5  -1  -9    0.60    1.73
   5  -1  -8  112.73   12.36
   5  -1  -7   34.74    6.42
   5  -1  -6  162.57   12.99
   5  -1  -5  192.13   13.05
   5  -1  -4   11.99    3.08
   5  -1  -2  517.25   24.27
   5  -1  -2  536.25   15.06
   5  -1  -1  573.37   24.61
   5  -1  -1  475.04   11.33
   5  -1   0    7.33    1.69
   5  -1   0    2.07    1.13
   5  -1   1    0.36    0.27
   5  -1   1    0.99    1.04
   5  -1   2   12.69    3.78
   5  -1   7    3.33    2.94
   5  -1   8  107.48   13.52
   5  -1   9   61.26   10.68
   5  -1  10   37.32    8.92
   5   0 -10   34.30    7.70
   5   0  -9    5.80    3.76
   5   0  -8    2.37    2.36
   5   0  -7    2.55    1.91
   5   0  -6   24.75    5.18
   5   0  -5  348.60   18.23
   5   0  -4  419.11   18.71
   5   0  -3   36.42    4.56
   5   0  -2   70.69    5.40
   5   0  -2   70.29    5.53
   5   0  -1  393.37   20.33
   5   0  -1  410.86   13.11
   5   0   0  328.54   17.98
   5   0   0  337.11   10.60
   5   0   0  318.15   12.85
   5   0   1  364.58   19.14
   5   0   1  390.80   11.67
   5   0   1  373.78   12.30
   5   0   2  354.43   19.09
   5   0   3  102.82   10.18
   5   0   7  235.75   18.67
   5   0   8   27.36    6.78
   5   0   9   19.71    5.83
   5   0  10    2.09    2.82
   5   0  11    2.45    2.31
   5   1 -10   71.17   11.33
   5   1  -9   33.17    7.57
   5   1  -8   37.12    7.44
   5   1  -7   90.41   10.73
   5   1  -6   80.38    9.40
   5   1  -5   54.24    7.15
   5   1  -4  255.56   14.73
   5   1  -3  390.05   17.16
   5   1  -2  235.36   11.72
   5   1  -2  253.94   11.87
   5   1  -1   27.24    3.51
   5   1  -1   31.39    3.35
   5   1   0  115.15   10.25
   5   1   0  121.82    7.14
   5   1   0  123.97    5.42
   5   1   0  122.27    8.08
   5   1   1    2.31    0.99
   5   1   1    1.90    1.35
   5   1   1    1.88    1.00
   5   1   2  177.56   12.76
   5   1   2  180.40    9.02
   5   1   3  411.49   20.62
   5   1   4  248.76    7.87
   5   1   5  113.20    6.31
   5   1   8   54.99    8.89
   5   1   9  118.33   13.83
   5   1  10   20.27    6.01
   5   1  11   14.46    5.18
   5   2 -10   -3.52    2.95
   5   2  -9   15.53    5.39
   5   2  -8   16.76    5.08
   5   2  -7  116.76   12.57
   5   2  -6  338.09   20.60
   5   2  -5  123.99   11.45
   5   2  -4   72.67    7.98
   5   2  -3  284.02   14.91
   5   2  -2  353.22   15.52
   5   2  -1  167.54    9.96
   5   2  -1  160.55    8.92
   5   2   0  104.34    9.66
   5   2   0  111.92    7.75
   5   2   0  110.92    6.56
   5   2   1   50.83    6.50
   5   2   1   48.27    4.86
   5   2   1   47.30    3.50
   5   2   1   40.51    4.48
   5   2   2   28.45    4.86
   5   2   2   25.02    3.61
   5   2   2   27.63    2.40
   5   2   3   44.03    3.19
   5   2   3   47.20    5.22
   5   2   4  239.81   15.39
   5   2   4  265.74   10.03
   5   2   5  282.45   11.62
   5   2   8   31.59    6.49
   5   2   9  192.90   17.20
   5   2  10   30.74    7.27
   5   2  11   63.23   10.58
   5   2  12   89.46   13.33
   5   3  -9   -0.26    2.36
   5   3  -8   18.25    5.39
   5   3  -7    0.78    2.14
   5   3  -6   94.31   11.00
   5   3  -5  332.76   19.72
   5   3  -4  419.80   21.09
   5   3  -3   97.96    8.96
   5   3  -2    7.08    2.25
   5   3  -1   24.30    3.74
   5   3   0   95.95    6.86
   5   3   1  147.76   11.21
   5   3   1  158.43    8.34
   5   3   2  228.21   13.89
   5   3   2  231.87   11.64
   5   3   3   88.75    8.53
   5   3   4    2.47    2.11
   5   3   4    2.85    1.30
   5   3   5  285.17   12.76
   5   3   8    0.66    1.26
   5   3   9    2.66    2.11
   5   3  10   12.48    4.43
   5   3  11   23.71    6.82
   5   4  -9   46.58    9.39
   5   4  -8   27.57    7.10
   5   4  -7  106.62   12.87
   5   4  -6   20.82    5.54
   5   4  -5   52.72    7.93
   5   4  -4  243.43   16.39
   5   4  -3  319.77   17.92
   5   4  -2  113.97    9.69
   5   4  -1    9.58    2.71
   5   4   0    1.45    1.19
   5   4   1   16.51    3.06
   5   4   1   19.01    3.90
   5   4   2  102.42    8.89
   5   4   2  111.49    7.64
   5   4   3  265.01   14.75
   5   4   3  248.37   10.90
   5   4   4  555.06   22.98
   5   4   5    5.45    1.89
   5   4   8  124.02   12.07
   5   4   9   33.47    6.42
   5   4  10   54.72    8.75
   5   4  11   19.15    5.42
   5   5  -8    7.06    3.87
   5   5  -7   97.04   12.58
   5   5  -6  195.25   17.07
   5   5  -5   84.41   10.64
   5   5  -4    4.83    2.76
   5   5  -3  198.07   14.54
   5   5  -2  268.39   16.09
   5   5  -1   54.84    6.76
   5   5   0  163.84   11.27
   5   5   2    4.13    1.74
   5   5   2    0.86    0.84
   5   5   3  204.05   12.54
   5   5   3  206.67    9.40
   5   5   4  683.46   25.35
   5   5   8   60.56    7.97
   5   5   9   12.13    3.77
   5   5  10   29.11    6.24
   5   5  11  103.42   12.07
   5   6  -7   -0.23    1.57
   5   6  -6   33.65    7.51
   5   6  -5  193.33   16.95
   5   6  -4  157.86   14.47
   5   6  -3   24.71    5.34
   5   6  -2   68.60    8.47
   5   6  -1   91.77    9.42
   5   6   0   99.43    9.42
   5   6   2  321.23   13.98
   5   6   2  305.02   15.85
   5   6   3  120.54    9.27
   5   6   3  134.89    7.49
   5   6   4   25.29    4.16
   5   6   8   34.83    5.84
   5   6   9    0.47    1.46
   5   7  -7   59.80   10.92
   5   7  -6   32.42    7.55
   5   7  -5    2.32    2.87
   5   7  -4  486.22   27.32
   5   7  -3   39.83    7.12
   5   7  -2  105.20   11.25
   5   7  -1    8.66    3.14
   5   7   0   -0.49    1.45
   5   7   2  163.11   11.15
   5   7   3  464.23   19.02
   5   7   4  347.20   15.96
   5   8  -6  181.54   18.70
   5   8  -5   83.03   11.99
   5   8  -4    1.08    1.58
   5   8  -3   79.90   10.75
   5   8  -2  136.64   13.53
   5   8  -1  143.32   13.60
   5   8   0   78.82    9.65
   5   8   2   82.96    7.67
   5   8   3   61.64    6.21
   5   8   4  150.48    9.66
   5   9  -4  132.22   15.14
   5   9  -3   35.62    7.84
   5   9  -2    6.69    3.43
   5   9  -1    9.61    3.80
   5   9   0   13.28    4.47
   5  10  -3   97.09   12.98
   5  10  -2   27.73    6.98
   5  10  -1   -0.35    1.38
   5  10   0   64.99    9.83
   5  11  -1   11.72    4.78
   5  11   0   31.15    7.25
   5  12   1   44.46    9.01
   6  -8  -4    0.05    1.80
   6  -7  -6  131.98   14.44
   6  -7  -5   32.26    7.28
   6  -7  -4   20.74    5.73
   6  -7  -3    2.14    2.43
   6  -6  -8  148.26   15.78
   6  -6  -7   55.24    9.73
   6  -6  -6    6.77    3.32
   6  -6  -5   72.37   10.51
   6  -6  -4  104.62   12.47
   6  -6  -3   22.15    5.72
   6  -6  -2   36.79    7.50
   6  -5  -8   67.67   10.48
   6  -5  -7  185.46   17.25
   6  -5  -6  117.31   13.42
   6  -5  -5    3.50    2.57
   6  -5  -4   10.56    3.61
   6  -5  -3   16.08    5.08
   6  -5  -2    6.90    3.13
   6  -5  -1  206.61   17.44
   6  -4  -7   60.20    9.82
   6  -4  -6  211.46   18.01
   6  -4  -5  153.35   14.92
   6  -4  -4   28.96    6.29
   6  -4  -3   10.80    3.90
   6  -4  -2   37.30    7.10
   6  -4  -1    3.28    3.19
   6  -4   0  105.72   12.29
   6  -4   6   22.85    6.82
   6  -3  -5   39.83    7.78
   6  -3  -4  149.16   14.37
   6  -3  -3   31.81    6.37
   6  -3  -2  111.33   11.90
   6  -3  -1  162.01   14.66
   6  -3   0   24.03    5.82
   6  -3   1   77.31   10.67
   6  -3   7   11.77    5.19
   6  -2  -4    3.90    2.55
   6  -2  -3    2.43    2.34
   6  -2  -2    3.12    2.17
   6  -2  -1  247.55   17.71
   6  -2   0  419.76   23.75
   6  -2   1  146.94   13.73
   6  -2   2   18.88    5.02
   6  -2   7   40.26    8.69
   6  -2   8   24.11    7.18
   6  -1  -8   76.45   10.33
   6  -1  -3   43.72    7.49
   6  -1  -2  106.42   11.47
   6  -1  -1    0.02    1.35
   6  -1   0  190.10   15.23
   6  -1   1  389.21   22.42
   6  -1   2  246.76   17.77
   6  -1   8  182.34   18.79
   6  -1   9   98.68   14.44
   6   0 -10    5.00    3.07
   6   0  -9  114.22   13.69
   6   0  -8  219.94   18.12
   6   0  -7   61.79    8.83
   6   0  -6    5.34    3.10
   6   0  -5   55.74    7.19
   6   0  -4   11.54    3.06
   6   0  -3   40.04    4.83
   6   0  -2  288.75   19.19
   6   0  -1   35.50    6.55
   6   0   0  364.27   20.95
   6   0   1  335.23   20.22
   6   0   2  385.40   22.84
   6   0   3  207.39   16.14
   6   0   8   59.05   10.22
   6   0   9  241.60   21.95
   6   1  -9    5.17    3.65
   6   1  -8  108.70   12.77
   6   1  -7  242.96   18.27
   6   1  -6   70.96    9.06
   6   1  -5   18.26    4.27
   6   1  -4    6.51    2.61
   6   1  -3    9.75    2.57
   6   1  -2   29.91    3.89
   6   1  -1  276.58   17.92
   6   1  -1  178.27    8.23
   6   1   0 1068.36   38.82
   6   1   1  120.52   11.47
   6   1   2   33.93    6.11
   6   1   3  172.71   14.46
   6   1   8   16.21    5.49
   6   1   9   45.52    9.18
   6   1  10  257.23   22.94
   6   2  -9  109.50   13.97
   6   2  -8    9.54    4.78
   6   2  -7   65.67    9.60
   6   2  -6  193.29   15.70
   6   2  -5   60.97    8.11
   6   2  -4   41.43    6.26
   6   2  -3   63.39    6.99
   6   2  -2  133.57    9.35
   6   2  -1    1.62    1.21
   6   2   0  418.22   21.97
   6   2   0  382.29   13.09
   6   2   1  545.29   18.93
   6   2   1  553.76   25.35
   6   2   1  528.57   18.43
   6   2   2  295.31   18.37
   6   2   2  280.39   13.60
   6   2   3    1.35    1.55
   6   2   4   35.87    6.45
   6   2   9   10.69    4.50
   6   2  10    0.55    2.23
   6   2  11  207.89   20.44
   6   3  -9   90.50   13.16
   6   3  -8  311.33   23.49
   6   3  -7   39.20    7.78
   6   3  -6    6.02    2.93
   6   3  -5   38.44    6.86
   6   3  -4   31.70    5.58
   6   3  -3   40.80    5.86
   6   3  -2  304.07   15.52
   6   3  -1  336.67   15.20
   6   3   0   30.01    5.82
   6   3   0   31.76    3.94
   6   3   1  241.04   16.06
   6   3   1  257.75   10.92
   6   3   2  537.43   25.10
   6   3   2  572.19   16.65
   6   3   3  364.69   19.89
   6   3   3  287.24   10.65
   6   3   4    8.35    3.33
   6   3   9  233.77   19.60
   6   3  10  256.64   21.43
   6   3  11    2.07    2.42
   6   4  -8  131.09   15.37
   6   4  -7  155.66   16.12
   6   4  -6   77.79   10.57
   6   4  -5   31.94    6.39
   6   4  -4   19.88    4.73
   6   4  -3   31.92    5.51
   6   4  -2    2.89    1.92
   6   4  -1  387.34   17.94
   6   4   0  556.86   20.88
   6   4   1  162.85   12.93
   6   4   1  172.32   10.11
   6   4   2   75.66    9.19
   6   4   2   77.54    6.38
   6   4   3  352.65   19.31
   6   4   4  169.66   13.25
   6   4   9   81.74   10.96
   6   4  10  376.97   25.19
   6   4  11  212.98   19.51
   6   4  12    7.20    4.08
   6   5  -7   26.11    6.67
   6   5  -6   52.88    9.03
   6   5  -5   27.63    6.14
   6   5  -4   52.99    8.04
   6   5  -3   71.65    8.92
   6   5  -2  197.01   14.10
   6   5  -1   37.27    5.53
   6   5   0  376.53   18.06
   6   5   1  402.04   21.23
   6   5   1  387.49   17.82
   6   5   2  233.77   15.39
   6   5   2  261.49   13.68
   6   5   3    5.46    2.32
   6   5   4   16.93    4.38
   6   5   9  171.85   15.36
   6   5  10    6.00    3.22
   6   6  -7   37.68    8.31
   6   6  -6    1.92    2.57
   6   6  -5   55.82    9.24
   6   6  -4   26.40    5.99
   6   6  -3   82.48   10.19
   6   6  -2  219.80   15.85
   6   6  -1  406.82   21.18
   6   6   0   18.20    4.09
   6   6   1   78.46    8.98
   6   6   1   76.68    8.25
   6   6   2  420.55   21.05
   6   6   3  183.79   13.15
   6   6   4    4.11    2.06
   6   6   5   10.90    3.19
   6   6   9  385.53   22.67
   6   7  -6   53.31    9.78
   6   7  -5   -0.08    1.69
   6   7  -4   65.67    9.89
   6   7  -3    6.31    3.21
   6   7  -2   10.19    3.50
   6   7  -1  275.93   18.34
   6   7   0  527.59   25.32
   6   7   1  169.54   13.28
   6   7   2   13.01    3.57
   6   7   3  139.61   11.18
   6   7   4   58.52    7.16
   6   7   5    0.74    1.33
   6   8  -5    0.90    2.09
   6   8  -4   22.52    6.16
   6   8  -3   82.59   11.14
   6   8  -2   68.37    9.73
   6   8  -1   -0.16    1.55
   6   8   0  194.43   15.67
   6   8   1  467.85   24.68
   6   8   2  128.19   10.98
   6   8   3   11.84    3.16
   6   8   4   42.55    5.88
   6   9  -4   -0.31    1.49
   6   9  -3   12.43    4.33
   6   9  -2  163.37   16.14
   6   9  -1  221.23   18.32
   6   9   0    7.51    3.30
   6   9   1   91.48   11.10
   6  10  -2    4.33    3.11
   6  10  -1  153.55   15.91
   6  10   0  280.38   21.49
   6  10   1   51.60    8.85
   6  11   0   88.66   12.55
   6  11   1  166.41   16.79
   7  -6  -4   35.25    8.06
   7  -6  -3    5.66    3.42
   7  -6  -2  159.28   16.89
   7  -5  -5   66.36   10.62
   7  -5  -4  239.09   20.44
   7  -5  -3  112.52   13.71
   7  -5  -2    2.28    2.10
   7  -5  -1   84.90   12.20
   7  -4  -6  137.47   15.55
   7  -4  -5   18.05    5.67
   7  -4  -4   25.55    6.52
   7  -4  -3  247.41   20.42
   7  -4  -2  188.82   17.57
   7  -4  -1   -0.32    2.34
   7  -4   0    2.30    2.44
   7  -3  -6   95.08   13.07
   7  -3  -5  147.00   15.84
   7  -3  -4  142.04   15.01
   7  -3  -3    2.56    2.12
   7  -3  -2  136.35   14.57
   7  -3  -1   71.58   10.52
   7  -3   0   15.16    5.05
   7  -3   1    3.27    3.02
   7  -2  -5  100.05   13.02
   7  -2  -4  272.65   21.31
   7  -2  -3  118.74   13.44
   7  -2  -2    0.89    1.78
   7  -2  -1  122.05   13.48
   7  -2   0   19.04    5.29
   7  -2   1    6.87    3.10
   7  -2   2   31.68    6.93
   7  -1  -4   91.12   12.00
   7  -1  -3  346.45   23.47
   7  -1  -2  156.23   15.21
   7  -1  -1   25.42    5.91
   7  -1   0   23.79    5.71
   7  -1   1    1.91    1.87
   7  -1   2    5.69    3.36
   7   0  -3   76.53   10.63
   7   0  -2  248.87   19.16
   7   0  -1  213.13   17.50
   7   0   0   21.10    5.33
   7   0   1   31.75    6.55
   7   0   2   88.61   11.32
   7   0   3   29.82    6.80
   7   0   8   17.36    5.91
   7   1  -2    4.38    3.15
   7   1  -1   69.56    9.81
   7   1   0  148.16   14.12
   7   1   1    0.26    1.36
   7   1   2  104.59   11.90
   7   1   3  273.43   19.88
   7   1   9   -0.39    2.44
   7   2  -2  233.61   18.49
   7   2  -1   10.97    4.01
   7   2   0    2.36    1.43
   7   2   1   10.21    3.71
   7   2   2    2.02    1.48
   7   2   3  110.35   12.07
   7   2   4  398.49   24.19
   7   2   9  105.22   14.22
   7   3  -1   45.17    7.59
   7   3   0   14.20    4.21
   7   3   1   26.96    5.86
   7   3   2  110.04   11.74
   7   3   3   53.16    8.22
   7   3   4   20.18    5.10
   7   3   9   28.04    6.91
   7   3  10   31.00    7.82
   7   4  -7   47.56    9.18
   7   4  -6    1.90    1.82
   7   4  -5  144.90   14.07
   7   4  -4  354.63   21.09
   7   4  -3  175.82   13.50
   7   4   0    3.44    2.17
   7   4   1    1.43    1.26
   7   4   2   61.17    8.66
   7   4   3  168.92   14.48
   7   4   4  202.69   16.11
   7   4   9    1.21    2.93
   7   4  10    2.37    2.29
   7   4  11    0.22    3.51
   7   5  -7   60.51   10.48
   7   5  -6  142.85   15.44
   7   5  -5   29.12    6.49
   7   5  -4   61.21    8.91
   7   5  -3  291.69   18.74
   7   5  -2  153.73   12.62
   7   5  -1    0.83    1.17
   7   5   0   12.96    4.06
   7   5   1    1.45    1.73
   7   5   2    1.11    1.91
   7   5   3  128.87   12.36
   7   5   4  478.70   25.11
   7   5   5  194.50   15.61
   7   5   9   12.92    4.93
   7   5  10   15.92    5.78
   7   6  -6   82.55   11.95
   7   6  -5  176.75   16.76
   7   6  -4   34.77    6.96
   7   6  -3   23.12    5.51
   7   6  -2  194.33   15.32
   7   6  -1   70.50    8.60
   7   6   0   16.89    3.98
   7   6   1   32.55    5.19
   7   6   1   34.73    6.35
   7   6   2   75.41    9.32
   7   6   3   20.61    4.76
   7   6   4   64.36    8.61
   7   6   5  449.23   23.87
   7   7  -5   43.61    8.68
   7   7  -4  408.27   26.19
   7   7  -3   19.19    5.36
   7   7  -2    5.15    2.87
   7   7  -1   42.70    7.18
   7   7   0   37.67    6.37
   7   7   1   11.80    3.38
   7   7   1   11.55    3.94
   7   7   2  114.29   11.36
   7   7   2  114.87   10.60
   7   7   3  259.29   17.29
   7   7   4   90.99    9.99
   7   7   5   30.47    5.69
   7   8  -4   59.29   10.12
   7   8  -3  143.01   15.16
   7   8  -2  106.03   12.48
   7   8  -1   42.23    7.44
   7   8   0    3.21    2.11
   7   8   1   18.26    4.95
   7   8   1   18.26    4.77
   7   8   2    2.50    2.07
   7   8   2    1.07    1.59
   7   8   3  151.41   12.73
   7   9  -3    0.73    2.06
   7   9  -2   56.34    9.49
   7   9  -1   54.47    9.13
   7   9   0   11.02    4.11
   7   9   1   58.07    8.90
   7   9   2  199.57   16.39
   7  10  -1    8.42    3.93
   7  10   0    2.27    2.21
   7  10   1   26.13    6.28
   7  10   2   50.33    8.63
   7  11   1   13.78    5.02
   7  11   2   -2.30    2.87
   8  -2  -2   31.33    7.91
   8  -2  -1  110.06   14.08
   8  -2   0  116.74   14.52
   8  -2   1    5.48    3.63
   8  -1  -3    7.45    3.21
   8  -1  -2    1.30    3.05
   8  -1  -1   25.35    6.56
   8  -1   0  133.97   15.49
   8  -1   1  129.04   15.03
   8  -1   2   40.97    8.55
   8   0  -3   38.19    8.29
   8   0  -2   92.71   12.53
   8   0  -1   -1.40    1.43
   8   0   0   23.26    6.29
   8   0   1  179.46   17.40
   8   0   2  180.35   17.65
   8   0   3   76.26   11.46
   8   1  -4   15.62    5.72
   8   1  -3    0.77    1.60
   8   1  -2   51.67    9.26
   8   1  -1   72.54   10.85
   8   1   0  247.10   20.12
   8   1   1   15.06    4.96
   8   1   2   37.31    7.81
   8   1   3   77.88   11.38
   8   2  -3    9.42    4.30
   8   2  -2   -0.36    2.03
   8   2  -1   18.03    5.54
   8   2   0  200.84   17.85
   8   2   1  183.11   17.10
   8   2   2   32.68    7.03
   8   2   3    3.04    2.21
   8   2   4   34.82    7.67
   8   3  -2   90.28   12.27
   8   3  -1   45.56    8.57
   8   3   0    4.95    2.79
   8   3   1  156.12   15.47
   8   3   2  213.17   18.13
   8   3   3  115.53   13.38
   8   3   4    2.05    2.38
   8   4  -2   35.15    7.79
   8   4  -1  174.63   16.83
   8   4   0   91.31   11.95
   8   4   1    1.19    1.73
   8   4   2   63.33    9.68
   8   4   3  164.43   15.74
   8   4   4   78.00   10.91
   8   5  -1   29.78    6.95
   8   5   0  228.13   18.95
   8   5   1  129.68   13.90
   8   5   2   30.03    6.60
   8   5   3   21.96    5.80
   8   5   4   37.06    7.32
   8   6  -1   68.16   10.35
   8   6   0   35.56    7.43
   8   6   1  111.00   12.59
   8   6   2  194.77   16.66
   8   6   3   90.10   11.19
   8   6   4    6.58    3.29
   8   6   5    1.65    2.58
   8   7   0  125.20   13.90
   8   7   1   12.82    4.18
   8   7   2   26.77    6.09
   8   7   3   71.27    9.81
   8   7   4   53.61    8.58
   8   7   5   29.91    6.46
   8   8   0  138.33   14.58
   8   8   1  163.91   15.38
   8   8   2   22.18    5.37
   9   3   2    6.42    4.03
   9   3   3    6.65    4.72
   9   4   1   27.99    6.87
   9   4   2   43.98    8.84
   9   4   3   43.85    8.92
   9   4   4   11.96    4.22
   9   5   1    5.86    3.51
   9   5   2   14.80    5.19
   9   5   3  103.02   13.39
   9   5   4  202.28   18.96
   9   6   1   11.17    4.43
   9   6   2   11.03    4.34
   9   6   3    1.51    1.96
   9   6   4  114.06   13.88
   9   7   1   22.99    6.37
   9   7   2   49.84    9.04
   9   7   3   80.76   11.49
   0   0   0    0.00    0.00


TITL ZJ0415-Q5 in P1
REM P1 (#1 in standard setting)
CELL 0.71073   7.042696  10.445881  10.577814  73.2331  83.3715  77.3403
ZERR    6.00   0.000269   0.000674   0.000649   0.0056   0.0040   0.0043
LATT -1
SFAC C H N O Mn Co Ni Mo
UNIT 6.00 6.00 6.00 6.00 6.00 6.00 6.00 6.00
TREF
HKLF 4
END
_computing_structure_solution     'SHELXT 2014/5 (Sheldrick, 2014)'
;
loop_
_space_group_symop_operation_xyz
'x, y, z'
'-x, -y, -z'
loop_
_atom_site_label
_atom_site_type_symbol
_atom_site_fract_x
_atom_site_fract_y
_atom_site_fract_z
_atom_site_U_iso_or_equiv
_atom_site_adp_type
_atom_site_occupancy
_atom_site_site_symmetry_order
_atom_site_calc_flag
_atom_site_refinement_flags_posn
_atom_site_refinement_flags_adp
_atom_site_refinement_flags_occupancy
_atom_site_disorder_assembly
_atom_site_disorder_group
C1 C 0.7506(6) 0.0655(4) 0.4303(4) 0.0322(9) Uani 1 1 d . . . . .
H1 H 0.7450 0.0287 0.3609 0.039 Uiso 1 1 calc R . . . .
C2 C 0.7497(6) -0.0194(5) 0.5591(4) 0.0382(10) Uani 1 1 d . . . . .
H2 H 0.7414 -0.1104 0.5750 0.046 Uiso 1 1 calc R . . . .
C3 C 0.7613(6) 0.0334(4) 0.6615(4) 0.0370(10) Uani 1 1 d . . . . .
H3 H 0.7658 -0.0227 0.7476 0.044 Uiso 1 1 calc R . . . .
C4 C 0.7663(5) 0.1728(4) 0.6366(4) 0.0289(9) Uani 1 1 d . . . . .
C5 C 0.7698(6) 0.2355(5) 0.7400(4) 0.0389(11) Uani 1 1 d . . . . .
H5 H 0.7743 0.1829 0.8275 0.047 Uiso 1 1 calc R . . . .
C6 C 0.7667(6) 0.3716(5) 0.7107(5) 0.0391(11) Uani 1 1 d . . . . .
H6 H 0.7714 0.4107 0.7786 0.047 Uiso 1 1 calc R . . . .
C7 C 0.7563(5) 0.4550(4) 0.5782(4) 0.0271(9) Uani 1 1 d . . . . .
C8 C 0.7452(6) 0.5970(4) 0.5435(4) 0.0339(10) Uani 1 1 d . . . . .
H8 H 0.7456 0.6406 0.6087 0.041 Uiso 1 1 calc R . . . .
C9 C 0.7341(6) 0.6700(4) 0.4147(4) 0.0353(10) Uani 1 1 d . . . . .
H9 H 0.7275 0.7637 0.3910 0.042 Uiso 1 1 calc R . . . .
C10 C 0.7325(5) 0.6027(4) 0.3176(4) 0.0264(8) Uani 1 1 d . . . . .
H10 H 0.7249 0.6537 0.2297 0.032 Uiso 1 1 calc R . . . .
C11 C 0.7543(5) 0.3966(4) 0.4738(4) 0.0199(7) Uani 1 1 d . . . . .
C12 C 0.7618(5) 0.2509(4) 0.5048(4) 0.0206(8) Uani 1 1 d . . . . .
Mn1 Mn 0.77307(7) 0.34394(5) 0.19643(5) 0.01638(14) Uani 1 1 d . U . . .
Mo1 Mo 0.71103(4) 0.67004(3) -0.08914(3) 0.01545(10) Uani 1 1 d . U . . .
N1 N 0.7592(4) 0.1971(3) 0.4023(3) 0.0211(6) Uani 1 1 d . . . . .
N2 N 0.7416(4) 0.4691(3) 0.3461(3) 0.0215(7) Uani 1 1 d . . . . .
O1 O 0.5091(3) 0.6925(3) -0.1804(3) 0.0289(6) Uani 1 1 d . U . . .
O2 O 0.9183(3) 0.6610(3) -0.1978(3) 0.0244(6) Uani 1 1 d . U . . .
O3 O 0.6965(4) 0.8130(3) -0.0289(3) 0.0335(7) Uani 1 1 d . U . . .
O4 O 0.7287(3) 0.5215(3) 0.0417(3) 0.0275(5) Uani 1 1 d . U . . .
O5 O 0.8823(4) 0.1873(4) 0.0864(4) 0.0446(9) Uani 1 1 d D . . . .
H5A H 1.0071 0.1743 0.0772 0.067 Uiso 1 1 d GR . . . .
H5B H 0.841(6) 0.116(2) 0.103(5) 0.048(15) Uiso 1 1 d D . . . .
O6 O 0.6689(5) -0.0065(4) 0.1209(4) 0.0498(9) Uani 1 1 d D . . . .
H6A H 0.5754 0.0550 0.0848 0.075 Uiso 1 1 d DG . . . .
H6B H 0.6804 -0.0756 0.0916 0.075 Uiso 1 1 d G . . . .
loop_
_atom_site_aniso_label
_atom_site_aniso_U_11
_atom_site_aniso_U_22
_atom_site_aniso_U_33
_atom_site_aniso_U_23
_atom_site_aniso_U_13
_atom_site_aniso_U_12
Mo1 0.01520(16) 0.01554(17) 0.01504(18) -0.00251(12) -0.00203(11) -0.00344(12)
Mn1 0.0160(3) 0.0179(3) 0.0148(3) -0.0028(2) -0.0017(2) -0.0041(2)
O2 0.0149(11) 0.0370(15) 0.0241(14) -0.0134(12) 0.0033(10) -0.0064(10)
O1 0.0209(12) 0.0366(15) 0.0277(15) -0.0009(12) -0.0073(11) -0.0096(11)
O3 0.0411(15) 0.0268(15) 0.0383(18) -0.0186(14) 0.0019(13) -0.0076(12)
O4 0.0322(8) 0.0232(8) 0.0215(8) 0.0040(8) -0.0044(7) -0.0058(8)
O5 0.0284(15) 0.048(2) 0.073(3) -0.041(2) 0.0102(16) -0.0145(15)
N2 0.0239(15) 0.0207(16) 0.0191(17) -0.0054(13) 0.0006(12) -0.0035(13)
N1 0.0222(14) 0.0181(15) 0.0212(18) -0.0017(13) -0.0031(12) -0.0038(12)
O6 0.0437(19) 0.042(2) 0.075(3) -0.034(2) -0.0072(17) -0.0062(15)
C11 0.0174(16) 0.0216(19) 0.019(2) -0.0049(15) -0.0008(13) -0.0015(14)
C12 0.0171(16) 0.0250(19) 0.017(2) -0.0024(16) -0.0011(13) -0.0034(14)
C10 0.0313(19) 0.021(2) 0.026(2) -0.0066(17) -0.0016(16) -0.0038(16)
C7 0.0266(19) 0.031(2) 0.024(2) -0.0080(18) -0.0017(16) -0.0053(16)
C1 0.042(2) 0.027(2) 0.029(2) -0.0052(19) -0.0077(18) -0.0099(18)
C8 0.040(2) 0.035(2) 0.031(3) -0.017(2) -0.0005(19) -0.0066(19)
C4 0.029(2) 0.031(2) 0.022(2) -0.0017(18) -0.0032(16) -0.0040(17)
C2 0.051(3) 0.028(2) 0.033(3) 0.002(2) -0.003(2) -0.015(2)
C3 0.045(2) 0.030(2) 0.026(2) 0.0100(19) -0.0052(19) -0.0090(19)
C9 0.045(2) 0.024(2) 0.040(3) -0.014(2) 0.003(2) -0.0082(19)
C5 0.047(3) 0.045(3) 0.020(2) -0.002(2) -0.0023(19) -0.007(2)
C6 0.049(3) 0.048(3) 0.023(2) -0.015(2) -0.0014(19) -0.009(2)
loop_
_atom_type_symbol
_atom_type_description
_atom_type_scat_dispersion_real
_atom_type_scat_dispersion_imag
_atom_type_scat_source
C C 0.0033 0.0016 'International Tables Vol C Tables 4.2.6.8 and 6.1.1.4'
H H 0.0000 0.0000 'International Tables Vol C Tables 4.2.6.8 and 6.1.1.4'
N N 0.0061 0.0033 'International Tables Vol C Tables 4.2.6.8 and 6.1.1.4'
O O 0.0106 0.0060 'International Tables Vol C Tables 4.2.6.8 and 6.1.1.4'
Mn Mn 0.3368 0.7283 'International Tables Vol C Tables 4.2.6.8 and 6.1.1.4'
Mo Mo -1.6832 0.6857 'International Tables Vol C Tables 4.2.6.8 and 6.1.1.4'
loop_
_geom_angle_atom_site_label_1
_geom_angle_atom_site_label_2
_geom_angle_atom_site_label_3
_geom_angle
_geom_angle_site_symmetry_1
_geom_angle_site_symmetry_3
O2 Mo1 O3 107.58(12) . .
O1 Mo1 O2 107.27(12) . .
O1 Mo1 O3 110.05(13) . .
O1 Mo1 O4 111.17(12) . .
O4 Mo1 O2 110.39(12) . .
O4 Mo1 O3 110.27(13) . .
O2 Mn1 O5 82.00(10) 2_765 .
O2 Mn1 N2 84.47(10) 2_765 .
O2 Mn1 N1 93.78(10) 2_765 .
O1 Mn1 O2 166.89(10) 2_665 2_765
O1 Mn1 O5 85.19(10) 2_665 .
O1 Mn1 N2 107.50(10) 2_665 .
O1 Mn1 N1 85.01(10) 2_665 .
O4 Mn1 O2 93.69(10) . 2_765
O4 Mn1 O1 91.53(10) . 2_665
O4 Mn1 O5 101.19(13) . .
O4 Mn1 N2 90.73(11) . .
O4 Mn1 N1 161.01(10) . .
O5 Mn1 N2 162.47(12) . .
O5 Mn1 N1 97.12(13) . .
N1 Mn1 N2 72.65(11) . .
Mo1 O2 Mn1 138.21(13) . 2_765
Mo1 O1 Mn1 150.87(16) . 2_665
Mo1 O4 Mn1 175.53(14) . .
Mn1 O5 H5A 109.5 . .
Mn1 O5 H5B 122(3) . .
H5A O5 H5B 112.8 . .
C11 N2 Mn1 115.7(2) . .
C10 N2 Mn1 126.1(3) . .
C10 N2 C11 117.8(3) . .
C12 N1 Mn1 115.7(2) . .
C1 N1 Mn1 126.2(3) . .
C1 N1 C12 118.0(3) . .
H6A O6 H6B 109.4 . .
N2 C11 C12 117.7(3) . .
N2 C11 C7 123.6(4) . .
C7 C11 C12 118.7(4) . .
N1 C12 C11 117.5(3) . .
N1 C12 C4 122.9(3) . .
C4 C12 C11 119.5(3) . .
N2 C10 H10 118.6 . .
N2 C10 C9 122.7(4) . .
C9 C10 H10 118.6 . .
C11 C7 C6 120.1(4) . .
C8 C7 C11 116.7(4) . .
C8 C7 C6 123.2(4) . .
N1 C1 H1 118.5 . .
N1 C1 C2 123.0(4) . .
C2 C1 H1 118.5 . .
C7 C8 H8 120.1 . .
C9 C8 C7 119.8(4) . .
C9 C8 H8 120.1 . .
C12 C4 C3 117.1(4) . .
C12 C4 C5 120.2(4) . .
C3 C4 C5 122.7(4) . .
C1 C2 H2 120.6 . .
C3 C2 C1 118.9(4) . .
C3 C2 H2 120.6 . .
C4 C3 H3 120.0 . .
C2 C3 C4 120.1(4) . .
C2 C3 H3 120.0 . .
C10 C9 H9 120.3 . .
C8 C9 C10 119.4(4) . .
C8 C9 H9 120.3 . .
C4 C5 H5 119.9 . .
C6 C5 C4 120.3(4) . .
C6 C5 H5 119.9 . .
C7 C6 H6 119.4 . .
C5 C6 C7 121.1(4) . .
C5 C6 H6 119.4 . .
loop_
_geom_bond_atom_site_label_1
_geom_bond_atom_site_label_2
_geom_bond_distance
_geom_bond_site_symmetry_2
Mo1 O2 1.754(2) .
Mo1 O1 1.746(2) .
Mo1 O3 1.764(2) .
Mo1 O4 1.747(3) .
Mn1 O2 2.165(2) 2_765
Mn1 O1 2.137(2) 2_665
Mn1 O4 2.081(3) .
Mn1 O5 2.228(3) .
Mn1 N2 2.291(3) .
Mn1 N1 2.279(3) .
O2 Mn1 2.165(2) 2_765
O1 Mn1 2.137(2) 2_665
O5 H5A 0.8581 .
O5 H5B 0.820(2) .
N2 C11 1.348(5) .
N2 C10 1.328(5) .
N1 C12 1.362(4) .
N1 C1 1.334(5) .
O6 H6A 0.8502 .
O6 H6B 0.8503 .
C11 C12 1.452(5) .
C11 C7 1.409(5) .
C12 C4 1.397(5) .
C10 H10 0.9300 .
C10 C9 1.405(5) .
C7 C8 1.408(6) .
C7 C6 1.422(6) .
C1 H1 0.9300 .
C1 C2 1.395(6) .
C8 H8 0.9300 .
C8 C9 1.358(6) .
C4 C3 1.412(6) .
C4 C5 1.432(6) .
C2 H2 0.9300 .
C2 C3 1.367(6) .
C3 H3 0.9300 .
C9 H9 0.9300 .
C5 H5 0.9300 .
C5 C6 1.361(6) .
C6 H6 0.9300 .
loop_
_geom_torsion_atom_site_label_1
_geom_torsion_atom_site_label_2
_geom_torsion_atom_site_label_3
_geom_torsion_atom_site_label_4
_geom_torsion
_geom_torsion_site_symmetry_1
_geom_torsion_site_symmetry_2
_geom_torsion_site_symmetry_3
_geom_torsion_site_symmetry_4
Mn1 N2 C11 C12 -7.5(4) . . . .
Mn1 N2 C11 C7 174.0(3) . . . .
Mn1 N2 C10 C9 -173.0(3) . . . .
Mn1 N1 C12 C11 5.7(4) . . . .
Mn1 N1 C12 C4 -176.0(3) . . . .
Mn1 N1 C1 C2 177.5(3) . . . .
O2 Mo1 O1 Mn1 144.2(3) . . . 2_665
O1 Mo1 O2 Mn1 172.0(2) . . . 2_765
O3 Mo1 O2 Mn1 53.6(2) . . . 2_765
O3 Mo1 O1 Mn1 -99.1(3) . . . 2_665
O4 Mo1 O2 Mn1 -66.8(2) . . . 2_765
O4 Mo1 O1 Mn1 23.4(3) . . . 2_665
N2 C11 C12 N1 1.2(4) . . . .
N2 C11 C12 C4 -177.2(3) . . . .
N2 C11 C7 C8 -0.3(5) . . . .
N2 C11 C7 C6 178.9(4) . . . .
N2 C10 C9 C8 0.0(6) . . . .
N1 C12 C4 C3 -2.1(5) . . . .
N1 C12 C4 C5 179.7(3) . . . .
N1 C1 C2 C3 -1.1(6) . . . .
C11 N2 C10 C9 -0.6(5) . . . .
C11 C12 C4 C3 176.1(3) . . . .
C11 C12 C4 C5 -2.0(5) . . . .
C11 C7 C8 C9 -0.2(6) . . . .
C11 C7 C6 C5 -1.7(6) . . . .
C12 N1 C1 C2 -1.8(5) . . . .
C12 C11 C7 C8 -178.9(3) . . . .
C12 C11 C7 C6 0.4(5) . . . .
C12 C4 C3 C2 -0.9(6) . . . .
C12 C4 C5 C6 0.7(6) . . . .
C10 N2 C11 C12 179.3(3) . . . .
C10 N2 C11 C7 0.7(5) . . . .
C7 C11 C12 N1 179.8(3) . . . .
C7 C11 C12 C4 1.5(5) . . . .
C7 C8 C9 C10 0.4(6) . . . .
C1 N1 C12 C11 -174.9(3) . . . .
C1 N1 C12 C4 3.4(5) . . . .
C1 C2 C3 C4 2.4(6) . . . .
C8 C7 C6 C5 177.5(4) . . . .
C4 C5 C6 C7 1.2(6) . . . .
C3 C4 C5 C6 -177.3(4) . . . .
C5 C4 C3 C2 177.2(4) . . . .
C6 C7 C8 C9 -179.4(4) . . . .
