#------------------------------------------------------------------------------
#$Date: 2022-07-05 10:33:56 +0300 (Tue, 05 Jul 2022) $
#$Revision: 276555 $
#$URL: file:///home/coder/svn-repositories/cod/cif/8/10/56/8105646.cif $
#------------------------------------------------------------------------------
#
# This file is available in the Crystallography Open Database (COD),
# http://www.crystallography.net/
#
# All data on this site have been placed in the public domain by the
# contributors.
#
data_8105646
loop_
_publ_author_name
'Alotaibi, Mohammad Hayal'
'Mohamed, Hanan A.'
'Abdel-Wahab, Bakr F.'
'Hegazy, Amany S.'
'Kariuki, Benson M.'
'El-Hiti, Gamal A.'
_publ_section_title
;
 Crystal structure of
 N&#x2032;-(1-(benzofuran-2-yl)ethylidene)-2-cyanoacetohydrazide,
 C13H11N3O2
;
_journal_issue                   2
_journal_name_full
'Zeitschrift f\"ur Kristallographie - New Crystal Structures'
_journal_page_first              361
_journal_page_last               362
_journal_paper_doi               10.1515/ncrs-2018-0420
_journal_volume                  234
_journal_year                    2019
_chemical_formula_moiety         'C13 H11 N3 O2'
_chemical_formula_sum            'C13 H11 N3 O2'
_chemical_formula_weight         241.25
_space_group_crystal_system      triclinic
_space_group_IT_number           2
_space_group_name_Hall           '-P 1'
_space_group_name_H-M_alt        'P -1'
_atom_sites_solution_hydrogens   geom
_cell_angle_alpha                64.82(3)
_cell_angle_beta                 65.89(3)
_cell_angle_gamma                84.57(2)
_cell_formula_units_Z            2
_cell_length_a                   7.889(2)
_cell_length_b                   9.367(3)
_cell_length_c                   9.630(3)
_cell_measurement_reflns_used    1300
_cell_measurement_temperature    293(2)
_cell_measurement_theta_max      27.8060
_cell_measurement_theta_min      3.9140
_cell_volume                     585.1(4)
_computing_cell_refinement       'CrysAlis PRO [7]'
_computing_data_collection       'CrysAlis PRO [7]'
_computing_data_reduction        'CrysAlis PRO [7]'
_computing_molecular_graphics    'ORTEP-3 for Windows [10]'
_computing_publication_material  'ORTEP-3 for Windows [10]'
_computing_structure_refinement  'SHELXL [9]'
_computing_structure_solution    'SHELXS [8]'
_diffrn_ambient_temperature      293(2)
_diffrn_measured_fraction_theta_full 0.998
_diffrn_measured_fraction_theta_max 0.819
_diffrn_measurement_device_type  'SuperNova, Dual, Cu at zero, Atlas'
_diffrn_measurement_method       '\w scans'
_diffrn_radiation_type           MoK\a
_diffrn_radiation_wavelength     0.71073
_diffrn_reflns_av_R_equivalents  0.0205
_diffrn_reflns_av_unetI/netI     0.0429
_diffrn_reflns_Laue_measured_fraction_full 0.998
_diffrn_reflns_Laue_measured_fraction_max 0.819
_diffrn_reflns_limit_h_max       9
_diffrn_reflns_limit_h_min       -10
_diffrn_reflns_limit_k_max       13
_diffrn_reflns_limit_k_min       -11
_diffrn_reflns_limit_l_max       13
_diffrn_reflns_limit_l_min       -11
_diffrn_reflns_number            4849
_diffrn_reflns_point_group_measured_fraction_full 0.998
_diffrn_reflns_point_group_measured_fraction_max 0.819
_diffrn_reflns_theta_full        25.242
_diffrn_reflns_theta_max         29.780
_diffrn_reflns_theta_min         2.947
_diffrn_standards_decay_%        0
_diffrn_standards_interval_count 0
_diffrn_standards_interval_time  0
_diffrn_standards_number         0
_exptl_absorpt_coefficient_mu    0.096
_exptl_absorpt_correction_T_max  1.000
_exptl_absorpt_correction_T_min  0.593
_exptl_absorpt_correction_type   gaussian
_exptl_absorpt_process_details
;
CrysAlisPro 1.171.38.43f (Rigaku Oxford Diffraction, 2015)
Numerical absorption correction based on gaussian integration over
			a multifaceted crystal model
Empirical absorption correction using spherical harmonics,
 implemented in SCALE3 ABSPACK scaling algorithm.
;
_exptl_crystal_colour            yellow
_exptl_crystal_density_diffrn    1.369
_exptl_crystal_description       plate
_exptl_crystal_F_000             252
_exptl_crystal_size_max          0.431
_exptl_crystal_size_mid          0.320
_exptl_crystal_size_min          0.101
_refine_diff_density_max         0.227
_refine_diff_density_min         -0.214
_refine_diff_density_rms         0.042
_refine_ls_extinction_coef       .
_refine_ls_extinction_method     none
_refine_ls_goodness_of_fit_ref   1.041
_refine_ls_hydrogen_treatment    constr
_refine_ls_matrix_type           full
_refine_ls_number_parameters     164
_refine_ls_number_reflns         2745
_refine_ls_number_restraints     0
_refine_ls_restrained_S_all      1.041
_refine_ls_R_factor_all          0.0889
_refine_ls_R_factor_gt           0.0550
_refine_ls_shift/su_max          0.000
_refine_ls_shift/su_mean         0.000
_refine_ls_structure_factor_coef Fsqd
_refine_ls_weighting_details
'w=1/[\s^2^(Fo^2^)+(0.0511P)^2^+0.1921P] where P=(Fo^2^+2Fc^2^)/3'
_refine_ls_weighting_scheme      calc
_refine_ls_wR_factor_gt          0.1236
_refine_ls_wR_factor_ref         0.1455
_reflns_Friedel_coverage         0.000
_reflns_Friedel_fraction_full    .
_reflns_Friedel_fraction_max     .
_reflns_number_gt                1812
_reflns_number_total             2745
_reflns_threshold_expression     'I > 2\s(I)'
_cod_data_source_file            suppl_ncrs-2018-0420_suppl.cif
_cod_data_source_block           bmk1810
_cod_original_cell_volume        585.1(3)
_cod_database_code               8105646
_shelx_space_group_comment
;
The symmetry employed for this shelxl refinement is uniquely defined
by the following loop, which should always be used as a source of
symmetry information in preference to the above space-group names.
They are only intended as comments.
;
_shelx_estimated_absorpt_t_min   0.960
_shelx_estimated_absorpt_t_max   0.990
_shelx_res_file
;
TITL bmk1810 in P-1
    shelx.res
    created by SHELXL-2018/1 at 16:15:01 on 10-Oct-2018
CELL  0.71073   7.8890   9.3667   9.6300   64.820   65.894   84.567
ZERR     2.00   0.0021   0.0029   0.0030    0.030    0.027    0.023
LATT   1
SFAC  C    H    N    O
UNIT  26 22 6 4
MERG   2
eqiv $1 -x+1, -y, -z
htab n2 o2_$1
mpla c1 c2 c3 c4 c5 c6 c7 c8 o1
mpla  n1 n2 c11 c12 o1
conf  n2 c11 c12 c13
FMAP   2
PLAN    5
SIZE     0.101   0.320   0.431
ACTA
BOND   $H
L.S.   4
WGHT    0.051100    0.192100
FVAR       9.70854
C1    1    0.716676    0.454611    0.105344    11.00000    0.03819    0.03806 =
         0.03537   -0.01312   -0.01212   -0.00251
C2    1    0.781128    0.609286    0.017261    11.00000    0.04804    0.04070 =
         0.03879   -0.01222   -0.01370   -0.00702
AFIX  43
H2    2    0.812869    0.669848   -0.096930    11.00000   -1.20000
AFIX   0
C3    1    0.791435    0.662637    0.132944    11.00000    0.04184    0.03876 =
         0.04794   -0.01853   -0.01397   -0.00264
C4    1    0.734009    0.531072    0.286281    11.00000    0.04880    0.03783 =
         0.04480   -0.01792   -0.01653   -0.00413
C5    1    0.841404    0.806229    0.124434    11.00000    0.06951    0.03970 =
         0.05745   -0.01757   -0.01913   -0.01022
AFIX  43
H5    2    0.877663    0.897509    0.024004    11.00000   -1.20000
AFIX   0
C6    1    0.836012    0.810047    0.266259    11.00000    0.07622    0.05250 =
         0.07246   -0.03650   -0.02183   -0.01039
AFIX  43
H6    2    0.868499    0.905174    0.262007    11.00000   -1.20000
AFIX   0
C7    1    0.782934    0.674564    0.416691    11.00000    0.07764    0.06777 =
         0.05932   -0.03832   -0.02261   -0.00518
AFIX  43
H7    2    0.782576    0.680421    0.510821    11.00000   -1.20000
AFIX   0
C8    1    0.730807    0.531711    0.429759    11.00000    0.07814    0.05351 =
         0.04445   -0.01919   -0.02293   -0.00893
AFIX  43
H8    2    0.695336    0.440544    0.530254    11.00000   -1.20000
AFIX   0
C9    1    0.668547    0.343709    0.055451    11.00000    0.03829    0.03910 =
         0.03912   -0.01631   -0.01303   -0.00066
C10   1    0.729297    0.393200   -0.128835    11.00000    0.05465    0.05080 =
         0.04059   -0.01936   -0.01261   -0.00897
AFIX 137
H10A  2    0.812811    0.321111   -0.162336    11.00000   -1.50000
H10B  2    0.791963    0.498338   -0.190549    11.00000   -1.50000
H10C  2    0.622072    0.391886   -0.151791    11.00000   -1.50000
AFIX   0
C11   1    0.401597   -0.019180    0.243791    11.00000    0.05480    0.04392 =
         0.04353   -0.01889   -0.01572   -0.00878
C12   1    0.330431   -0.047172    0.425359    11.00000    0.05715    0.04483 =
         0.04236   -0.01639   -0.01613   -0.01018
AFIX  23
H12A  2    0.416858   -0.105958    0.472259    11.00000   -1.20000
H12B  2    0.323567    0.053889    0.431865    11.00000   -1.20000
AFIX   0
C13   1    0.146585   -0.135372    0.523348    11.00000    0.06002    0.04020 =
         0.04017   -0.01133   -0.01829   -0.00413
N1    3    0.572613    0.212879    0.175400    11.00000    0.05026    0.03727 =
         0.04208   -0.01753   -0.01731   -0.00432
N2    3    0.521853    0.109564    0.127473    11.00000    0.05786    0.04360 =
         0.03792   -0.01747   -0.01275   -0.01219
AFIX  43
H2A   2    0.567300    0.127720    0.023090    11.00000   -1.20000
AFIX   0
N3    3    0.001800   -0.201322    0.599822    11.00000    0.06273    0.06278 =
         0.05404   -0.00983   -0.01632   -0.01298
O1    4    0.684792    0.402894    0.271841    11.00000    0.06269    0.03644 =
         0.03950   -0.01245   -0.01953   -0.00813
O2    4    0.352455   -0.110754    0.204182    11.00000    0.08865    0.06461 =
         0.05105   -0.02951   -0.00927   -0.03371
HKLF    4




REM  bmk1810 in P-1
REM R1 =  0.0550 for    1812 Fo > 4sig(Fo)  and  0.0889 for all    2745 data
REM    164 parameters refined using      0 restraints

END

WGHT      0.0511      0.1921

REM Highest difference peak  0.227,  deepest hole -0.214,  1-sigma level  0.042
Q1    1   0.8641  0.4535 -0.2208  11.00000  0.05    0.23
Q2    1   0.6902  0.3252 -0.1576  11.00000  0.05    0.19
Q3    1   0.4530  0.2315  0.2708  11.00000  0.05    0.14
Q4    1   0.6829  0.3774 -0.0400  11.00000  0.05    0.14
Q5    1   0.4178  0.0172  0.4415  11.00000  0.05    0.13
;
_shelx_hkl_file
;
   0   0   2 4669.07 262.837   4
   0   0   3 92669.1 1358.02   3
   0   0   3 90602.7 1418.97   4
   0   0   4 1587.94 225.420   4
   0   0   5 153.498 75.7692   4
   0   0   5 127.497 92.5131   3
   0   0   6 10295.8 701.032   4
   0   0   6 9985.99 636.371   3
   0   0   7 16317.3 884.461   3
   0   0   8 1454.19 306.593   3
   0   0   9 992.210 257.566   3
   0   0  10 807.231 264.753   3
   0  -1   9-126.656 117.169   3
   0  -1   8 73.3140 91.0655   3
   0  -1   7 2027.09 338.201   3
   0  -1   6 1701.88 279.252   3
   0  -1   5 10764.9 672.866   4
   0  -1   5 10480.7 629.672   3
   0  -1   5 9669.47 224.569   1
   0  -1   4 3007.68 126.470   1
   0  -1   4 3284.95 331.408   4
   0  -1   4 3137.28 306.888   3
   0  -1   3 12469.4 553.977   4
   0   1  -3 11938.4 539.153   4
   0   1  -2 15527.2 517.507   4
   0  -1   2 15711.3 519.706   4
   0   1  -1 73326.1 867.539   4
   0  -1   1 72165.2 845.834   4
   0  -1  -2 953.999 107.571   3
   0  -1  -3 55804.2 1021.86   3
   0  -1  -4 143.265 79.1390   3
   0   1   4 234.530 89.4109   4
   0   1   5 11859.7 662.721   4
   0   1   6 18.2120 65.7896   4
   0   1   6-26.0157 54.8035   3
   0   1   7 10866.5 694.034   3
   0   1   8 87.6448 78.9626   3
   0   1   9 568.598 201.323   3
   0   1  10 2223.58 393.084   3
   0   1  10 1690.31 342.140   2
   0  -2   9 3478.87 512.154   3
   0  -2   8 333.798 158.480   3
   0  -2   7 1418.21 296.788   3
   0  -2   6 10899.6 297.959   1
   0  -2   6 11145.6 746.475   3
   0  -2   5 16721.7 391.825   1
   0  -2   5 17527.3 880.258   4
   0  -2   5 16978.3 843.623   3
   0  -2   4 45.9582 70.5943   4
   0   2  -4 56.8973 72.0781   4
   0   2  -3 73745.9 1431.39   4
   0  -2   3 73774.2 1432.32   4
   0  -2   2 773.801 124.875   4
   0   2  -2 831.835 143.061   4
   0  -2   1 14193.9 425.685   4
   0   2  -1 14870.1 457.163   4
   0  -2   0 8122.89 255.431   4
   0   2   0 8112.94 261.112   4
   0   2   1 761.284 71.3490   3
   0  -2  -1 758.957 70.1110   3
   0  -2  -2 3583.87 159.674   2
   0  -2  -2 3951.31 207.827   3
   0   2   2 3637.49 184.160   3
   0   2   3 79177.4 949.153   2
   0  -2  -3 79297.3 1163.82   3
   0   2   4 79216.7 1153.84   2
   0  -2  -4 78388.6 1401.57   3
   0  -2  -5 12192.1 271.406   1
   0  -2  -5 12444.3 641.012   3
   0   2   6 0.72391 59.9155   4
   0   2   6 4.22749 57.9557   2
   0  -2  -6-75.9056 62.1093   3
   0   2   6-48.9991 75.1698   3
   0   2   7 122.568 90.1200   3
   0   2   7-19.1570 89.2428   2
   0   2   8 1144.28 242.019   3
   0   2   8 660.660 172.476   2
   0   2   9-19.2518 82.0210   3
   0   2   9 11.6231 78.1708   2
   0   2  10 843.751 245.578   2
   0   2  10 1051.60 266.974   3
   0   2  11 386.267 200.017   2
   0  -3   8 246.974 160.715   3
   0  -3   7 1368.80 313.534   3
   0  -3   6 6648.23 604.749   3
   0  -3   6 7353.87 309.443   1
   0   3  -5 276.413 121.853   4
   0  -3   5 486.264 171.962   3
   0   3  -4 16072.4 798.752   4
   0  -3   4 16771.9 791.495   4
   0  -3   3 4474.41 364.381   4
   0  -3   2 13129.2 542.196   4
   0   3  -2 13811.0 592.410   4
   0   3  -1 69.7829 49.9727   4
   0  -3   1 53.5564 41.1200   4
   0   3   0 20789.2 516.642   4
   0  -3   0 20577.3 499.705   4
   0  -3  -1 40263.0 601.567   3
   0   3   1 40051.1 663.182   4
   0   3   2 3896.35 196.698   3
   0  -3  -2 3900.61 207.632   3
   0  -3  -3 20134.6 578.772   3
   0  -3  -3 20277.5 477.060   2
   0   3   3 20893.4 530.863   3
   0   3   4 41149.2 765.882   2
   0  -3  -4 40746.7 980.080   3
   0   3   5 1828.63 188.089   2
   0  -3  -5 2131.17 264.685   3
   0   3   6 6113.09 445.854   3
   0  -3  -6 6774.25 520.720   3
   0   3   7 4810.70 388.324   2
   0   3   7 5131.87 442.934   3
   0   3   8 677.626 178.753   3
   0   3   8 379.592 136.782   2
   0   3   9 1086.07 230.958   2
   0   3   9 1218.85 264.949   3
   0   3  10 142.893 111.356   2
   0   3  10 157.725 108.914   3
   0   3  11 1432.84 300.640   2
   0  -4   8 465.317 218.336   3
   0  -4   7 231.440 193.871   3
   0  -4   6 1196.96 153.879   1
   0  -4   6 1668.13 323.050   3
   0   4  -5 749.414 220.096   4
   0  -4   4 3792.65 391.576   4
   0   4  -4 3801.62 421.133   4
   0  -4   3 195.782 84.8090   4
   0   4  -3 262.580 99.0333   4
   0  -4   2 156.211 81.3258   4
   0  -4   1 50117.8 1003.23   4
   0   4  -1 50434.7 1090.18   4
   0   4   0 47812.3 924.882   4
   0  -4   0 47633.4 872.383   4
   0  -4  -1 4835.27 240.921   3
   0   4   1 5202.28 279.627   4
   0  -4  -2 25087.9 569.806   3
   0   4   2 26054.2 614.966   4
   0  -4  -3 10625.7 426.664   3
   0   4   3 10705.6 386.288   3
   0  -4  -4 42702.0 801.799   2
   0  -4  -4 43133.4 1007.49   3
   0   4   5 825.608 146.347   3
   0  -4  -5 884.249 171.062   3
   0  -4  -6 783.447 181.847   3
   0   4   6 626.189 137.570   3
   0   4   7 1000.68 169.776   2
   0   4   7 587.860 151.463   3
   0   4   8 2310.67 322.194   3
   0  -4  -8 2235.19 147.739   1
   0   4   8 2214.39 275.872   2
   0  -4  -8 1785.16 108.053   1
   0   4   9 1797.78 302.113   3
   0   4   9 1380.90 243.583   2
   0   4  10-43.5918 83.4201   3
   0   4  10-180.630 85.8793   2
   0   4  11 82.1179 86.3360   2
   0   4  12 1287.16 338.795   2
   0  -5   7-151.429 180.317   3
   0   5  -6 134.267 143.804   4
   0  -5   6-4.45568 104.424   3
   0   5  -5 2151.20 372.371   4
   0   5  -4 339.834 146.741   4
   0  -5   3 1017.57 199.543   4
   0   5  -3 725.970 182.632   4
   0  -5   2 656.279 139.412   4
   0   5  -2 436.126 132.566   4
   0  -5   1 2420.41 241.688   4
   0  -5   0 9841.25 448.015   4
   0   5   0 9742.35 477.151   4
   0   5   1 1156.00 154.007   4
   0  -5  -1 1182.15 134.415   3
   0  -5  -2 61889.6 973.936   3
   0   5   2 60828.8 1069.86   4
   0   5   3 8466.42 372.482   3
   0  -5  -3 7810.20 379.393   3
   0  -5  -4 5676.93 369.341   3
   0  -5  -4 6145.11 309.000   2
   0  -5  -5 15037.5 544.640   2
   0   5   5 16498.5 613.564   3
   0  -5  -5 15166.8 683.700   3
   0   5   6 307.994 94.0174   3
   0  -5  -6 308.010 122.435   3
   0   5   7 9149.26 554.728   3
   0   5   8 3813.59 394.014   3
   0  -5  -9 738.640 80.8175   1
   0   5   9 1045.55 204.799   2
   0   5   9 691.402 189.220   3
   0   5  10 993.819 224.484   2
   0   5  10 917.368 238.818   3
   0   5  11-85.4320 122.653   3
   0   5  11 62.5938 63.6900   2
   0   5  12 112.214 133.022   2
   0  -6   7 253.315 211.043   3
   0   6  -6 739.121 265.950   4
   0  -6   6 516.814 222.560   3
   0   6  -5-93.3254 133.768   4
   0   6  -4 561.871 203.925   4
   0   6  -3 3383.71 419.071   4
   0   6  -2 2273.62 322.759   4
   0  -6   2 2012.01 263.676   4
   0   6  -1 103.251 102.535   4
   0  -6   1 79.0470 66.8700   4
   0  -6   0 1599.23 196.087   4
   0  -6  -1 3129.43 239.475   3
   0  -6  -2 23738.9 661.123   3
   0  -6  -3 9299.23 437.619   3
   0  -6  -4 1405.45 189.348   3
   0   6   5 1181.62 169.110   3
   0  -6  -5 1114.48 192.049   3
   0  -6  -5 1188.19 159.433   2
   0  -6  -6 25789.3 1009.79   3
   0   6   6 25241.4 840.036   3
   0   6   7 5600.68 432.332   3
   0   6   8 2479.69 313.199   3
   0  -6  -9 3582.62 236.081   1
   0   6   9 5120.24 480.618   3
   0   6  10 733.742 205.072   3
   0   6  11 23.5493 133.025   3
   0   7  -6 1935.11 410.666   4
   0  -7   6 1655.63 364.371   3
   0   7  -5 1507.96 350.292   4
   0   7  -4 1945.74 375.550   4
   0   7  -3 725.716 206.453   4
   0   7  -2 1053.54 250.221   4
   0  -7   1 10575.2 587.919   4
   0   7  -1 10264.9 663.274   4
   0  -7   0 3364.21 315.942   4
   0   7   0 3613.41 363.517   4
   0   7   1 2750.86 292.773   4
   0  -7  -1 3077.86 261.394   3
   0   7   2 6471.55 422.123   4
   0  -7  -2 6315.51 368.319   3
   0  -7  -3 456.653 110.253   3
   0   7   3 462.508 117.364   4
   0  -7  -4 3456.34 309.465   3
   0   7   4 3631.29 317.620   4
   0   7   5-6.29888 55.3955   3
   0  -7  -5-22.7351 52.7734   3
   0  -7  -5 50.5603 46.0827   2
   0   7   6 18008.2 718.851   3
   0  -7  -6 16799.6 634.411   2
   0   7   7 9758.75 571.179   3
   0   7   8 11184.1 660.253   3
   0   7   9 1454.25 253.258   3
   0   7  10 217.406 115.805   3
   0   8  -5 265.119 194.680   4
   0  -8   5-52.0181 138.356   3
   0   8  -4 1098.21 302.798   4
   0   8  -3 967.675 266.777   4
   0   8  -2 1349.66 296.908   4
   0   8  -1 259.073 164.723   4
   0   8   0-31.4794 64.1997   4
   0  -8  -1 265.978 84.4677   3
   0   8   1 187.457 98.7064   4
   0   8   2 4484.03 387.135   4
   0  -8  -2 4751.38 343.002   3
   0   8   3 3465.76 334.151   4
   0  -8  -3 3546.16 307.302   3
   0   8   4 4146.85 367.182   4
   0  -8  -4 4034.66 347.126   3
   0  -8  -5 637.865 161.621   3
   0   8   5 601.918 148.996   4
   0  -8  -6 9679.71 493.263   2
   0   8   6 10803.2 586.631   3
   0   8   7 952.400 186.285   3
   0   8   8 135.325 85.7187   3
   0   8   9 978.116 206.372   3
   0   8  10 194.411 108.218   3
   0   9  -4-132.103 159.017   4
   0   9  -3-54.7817 113.034   4
   0   9  -2 334.874 169.279   4
   0   9  -1 108.801 107.920   4
   0   9   0 2556.42 363.774   4
   0   9   1 3266.43 387.319   4
   0  -9  -2 2268.54 266.944   3
   0   9   2 2344.23 308.388   4
   0  -9  -3 9142.08 530.630   3
   0   9   3 10855.9 631.766   4
   0   9   4 4478.53 409.098   4
   0   9   5 42.9501 55.3613   4
   0   9   6 73.3400 86.1563   4
   0  -9  -6-22.7170 51.5152   2
   0   9   7 928.273 191.278   3
   0   9   8 46.1801 71.8646   3
   0   9   9 317.625 140.311   3
   0   9  10-97.5851 85.0892   3
   0  10  -2 776.182 280.967   4
   0  10  -1 612.241 230.218   4
   0  10   0 1105.09 277.096   4
   0  10   1 119.709 116.611   4
   0  10   2 2607.35 349.914   4
   0  10   3 97.5125 93.0917   4
   0  10   4 49.8927 75.9126   4
   0  10   5-12.6404 72.2631   4
   0  10   6 1925.92 297.480   4
   0  10   7-71.5499 70.1415   4
   0  10   8 134.827 95.0320   3
   0  10   9 132.184 112.152   3
   0  10  10 728.839 205.384   3
   0  11  -1 400.184 221.772   4
   0  11   0 687.328 240.862   4
   0  11   1 562.795 201.306   4
   0  11   2 116.329 171.767   4
   0  11   3 9.96549 77.7672   4
   0  11   4 119.943 92.3683   4
   0  11   5 304.246 130.612   4
   0  11   6-33.5540 74.4940   4
   0  11   7-31.1130 68.4298   4
   0  11   8 94.2975 85.4849   4
   0  11   9 204.108 141.564   4
   0  12   2-116.798 126.069   4
   0  12   3 611.044 199.077   4
   0  12   4 21.9712 109.728   4
   0  12   5-35.2452 81.9009   4
   0  12   6 85.4998 96.7121   4
   0  12   7 74.3604 74.0492   4
   0  12   8 49.5657 141.185   4
   0  13   5-1.02054 119.907   4
   0  13   6 43.2727 150.740   4
  -1  12   6 54.9878 125.233   4
  -1  12   5 429.654 167.293   4
  -1  12   4 202.477 132.789   4
  -1  12   3 236.682 151.077   4
  -1  12   2-241.312 146.993   4
  -1  12   1 127.716 184.954   4
  -1  11   7 945.492 232.387   4
  -1  11   6-62.1485 97.1914   4
  -1  11   5 387.058 161.844   4
  -1  11   4-58.3707 99.1506   4
  -1  11   3 324.567 137.962   4
  -1  11   2 111.947 108.503   4
  -1  11   1-81.5207 111.205   4
  -1  11   0-149.710 134.113   4
  -1  11  -1-210.498 156.900   4
  -1  10   9 119.903 119.777   3
  -1  10   8-294.127 138.483   3
  -1  10   7 204.296 132.141   4
  -1  10   6 676.113 187.229   4
  -1  10   5 708.091 194.505   4
  -1  10   4 2341.98 332.081   4
  -1  10   3 3067.67 382.361   4
  -1  10   2 4799.93 496.416   4
  -1  10   1 39.7029 94.4687   4
  -1  10   0 1301.52 297.294   4
  -1  10  -1 50.1406 139.306   4
  -1  10  -2 23.1364 111.974   4
  -1  10  -3 136.617 171.954   4
  -1   9   9 129.557 64.0441   3
  -1   9   8 814.519 207.073   3
  -1   9   7 2824.37 340.240   3
  -1   9   6 2757.00 355.641   4
  -1   9   5 100.631 83.2150   4
  -1   9   4 1290.36 231.472   4
  -1   9   3 223.245 114.780   4
  -1   9   2 2570.90 335.675   4
  -1   9   1 8964.39 650.225   4
  -1   9   0 1306.77 268.847   4
  -1   9  -1 42.4421 84.9527   4
  -1   9  -2-102.194 121.965   4
  -1   9  -3 2385.64 428.587   4
  -1   9  -4 68.9411 120.366   4
  -1   8  10 148.330 136.085   3
  -1   8   9 656.960 193.381   3
  -1   8   8 1810.86 282.581   3
  -1   8   7 15944.7 785.904   3
   1  -8  -7 17079.7 800.458   2
  -1   8   6 4235.51 390.099   3
   1  -8  -6 3528.58 344.863   2
   1  -8  -5 1004.50 175.959   2
  -1   8   5 1234.42 223.500   4
  -1   8   4 434.405 143.858   4
  -1   8   3 173.807 90.5515   4
  -1   8   2 4118.03 398.862   4
   1  -8  -2 4731.68 381.044   3
  -1   8   1 3751.06 388.134   4
  -1   8   0 7060.85 574.635   4
  -1   8  -1 626.063 202.274   4
  -1   8  -2 2871.18 424.783   4
  -1   8  -3 469.374 178.943   4
  -1   8  -4-109.965 151.158   4
  -1   8  -5 857.033 291.441   4
  -1   7  10 247.615 139.523   3
  -1   7   9 1513.67 273.686   3
  -1   7   8 292.695 119.392   3
  -1   7   7 5776.01 464.790   3
   1  -7  -6 2405.66 281.647   2
  -1   7   6 2292.89 275.658   3
   1  -7  -5 2591.01 271.006   2
  -1   7   5 2110.16 250.804   3
   1  -7  -4 116.380 77.9023   3
  -1   7   4-49.2173 73.4511   4
  -1   7   3 7077.20 471.048   4
   1  -7  -3 6999.96 441.706   3
   1  -7  -2 157.024 86.1205   3
  -1   7   2-70.3652 73.2721   4
   1  -7  -1 342.846 104.696   3
  -1   7   1 154.032 98.4251   4
   1  -7   0 7087.16 483.106   4
  -1   7   0 6945.61 515.578   4
  -1   7  -1 1414.23 253.011   4
  -1   7  -2 7261.23 617.393   4
  -1   7  -3 2305.52 378.763   4
  -1   7  -4-71.9210 103.252   4
  -1   7  -5 67.3010 135.898   4
  -1   7  -6 148.492 156.981   4
  -1   6  10 84.0542 77.1574   3
  -1   6   9 892.281 204.207   3
  -1   6   8 1513.85 257.040   3
  -1   6   7 1103.51 205.233   3
   1  -6  -6 7418.34 489.893   2
  -1   6   6 7323.86 481.342   3
   1  -6  -5 358.473 128.857   3
   1  -6  -5 164.004 59.3522   2
  -1   6   5 299.853 95.1718   3
   1  -6  -4 183.957 84.0112   3
  -1   6   4 61.6023 47.3204   3
   1  -6  -3 66337.3 1285.95   3
  -1   6   3 61866.1 1286.82   4
   1  -6  -2 812.784 137.935   3
  -1   6   2 584.535 132.548   4
  -1   6   1 1753.07 223.428   4
   1  -6  -1 1732.99 200.120   3
  -1   6   0 2324.03 272.859   4
   1  -6   0 2091.51 244.018   4
  -1   6  -1 5015.08 437.897   4
   1  -6   1 4841.94 391.064   4
   1  -6   2 585.801 148.530   4
  -1   6  -2 294.658 123.008   4
  -1   6  -3 1807.03 316.667   4
  -1   6  -4 870.857 224.080   4
  -1   6  -5 606.791 241.483   4
  -1   6  -6-15.5107 108.060   4
   1  -6   7 1457.41 376.431   3
  -1   6  -7 368.097 228.464   4
  -1   5  10 256.084 152.421   3
  -1   5   9 382.631 152.018   3
  -1   5   8 1926.34 286.066   3
   1  -5  -8 1929.97 205.600   1
  -1   5   7 396.428 139.254   3
   1  -5  -7 526.633 121.477   1
  -1   5   6 805.931 165.972   3
   1  -5  -5 3368.85 341.431   3
   1  -5  -5 3037.13 281.316   2
  -1   5   5 3121.69 289.680   3
   1  -5  -4 1302.28 173.053   2
  -1   5   4 1182.24 165.440   3
   1  -5  -4 1281.83 190.205   3
   1  -5  -3 20959.1 689.181   3
   1  -5  -2 347.293 86.8861   3
   1  -5  -1 12186.0 482.896   3
   1  -5   0 29.9775 40.5692   4
  -1   5  -1 1961.21 252.828   4
   1  -5   1 1998.20 229.564   4
  -1   5  -2 4811.06 426.115   4
   1  -5   2 4530.89 373.403   4
  -1   5  -3 188.170 92.9935   4
   1  -5   3 384.882 122.446   4
  -1   5  -4 1000.99 239.997   4
  -1   5  -5 575.652 201.101   4
  -1   5  -6 649.839 219.276   4
   1  -5   7 441.202 222.246   3
  -1   5  -7 120.590 143.525   4
  -1   4  11-23.0305 87.0302   2
  -1   4  10 120.996 118.772   2
  -1   4  10 332.304 147.150   3
  -1   4   9 1732.91 290.698   2
  -1   4   9 2381.00 348.811   3
  -1   4   8 3622.42 378.271   2
  -1   4   8 3373.82 396.431   3
   1  -4  -8 2882.82 168.099   1
  -1   4   7 28.7053 53.5566   2
  -1   4   7 110.632 65.2209   3
   1  -4  -7 70.6305 46.3009   1
   1  -4  -6 853.172 138.291   1
  -1   4   6 909.568 176.681   3
  -1   4   5 386.195 103.679   3
   1  -4  -5 516.449 139.087   3
   1  -4  -4 4447.16 313.387   2
   1  -4  -4 4622.75 355.071   3
   1  -4  -3 1758.57 196.460   3
  -1   4   2 18795.4 545.730   3
   1  -4  -2 18809.0 569.665   3
   1  -4  -1 188.159 60.2763   3
  -1   4   1 55.9606 44.5165   4
  -1   4   0 163.983 63.3128   4
   1  -4   0 114.387 65.9531   4
   1  -4   1 20641.3 671.682   4
   1  -4   2 4496.43 343.464   4
   1  -4   3 13203.5 656.845   4
  -1   4  -3 13228.7 724.506   4
   1  -4   4 15622.5 784.334   4
  -1   4  -4 14073.8 811.405   4
  -1   4  -5 8512.28 684.244   4
  -1   4  -6 72.1488 95.6808   4
  -1   4  -7-10.8385 106.742   4
   1  -4   7 64.4815 137.168   3
   1  -4   8 199.652 138.914   3
  -1   3  10 239.470 175.388   3
  -1   3  10 175.010 125.127   2
  -1   3   9 393.293 156.983   3
  -1   3   9 599.906 185.488   2
  -1   3   8 1009.95 211.885   2
  -1   3   8 1201.03 245.575   3
   1  -3  -7 3334.48 146.163   1
  -1   3   7 3248.46 359.279   3
  -1   3   7 3427.60 356.524   2
   1  -3  -6 10.3333 27.7285   1
   1  -3  -6-93.3304 116.799   3
  -1   3   6-67.0565 58.0500   3
  -1   3   6 146.782 91.3132   2
   1  -3  -5 8914.09 380.186   1
   1  -3  -5 9790.44 584.369   3
   1  -3  -4 1955.24 230.120   3
   1  -3  -3 13128.9 473.650   2
   1  -3  -3 12411.8 508.443   3
   1  -3  -2 687.303 106.413   3
  -1   3   2 657.938 96.7253   3
   1  -3  -1 44279.9 745.641   3
  -1   3   1 43664.9 796.193   4
  -1   3   0 123242. 1393.28   4
   1  -3   0 121901. 1350.96   4
   1  -3   1 11.1969 34.0389   4
  -1   3  -1-43.0719 48.5773   4
  -1   3  -2 11238.9 543.394   4
   1  -3   2 11874.3 518.097   4
   1  -3   3 26.4589 45.2473   4
  -1   3  -4 3344.31 378.532   4
   1  -3   4 3228.98 343.594   4
  -1   3  -5 3159.91 398.295   4
  -1   3  -6 29250.1 1288.68   4
   1  -3   6 25811.0 847.311   1
   1  -3   7 3102.25 462.936   3
   1  -3   8 982.562 279.335   3
   1  -3   9 49.1203 148.203   3
  -1   2  10 124.619 149.759   3
  -1   2  10 40.3308 114.088   2
  -1   2   9 121.984 115.950   3
  -1   2   9-49.2583 103.139   2
  -1   2   8-71.5723 88.1654   3
  -1   2   8 106.009 123.166   2
  -1   2   7 1126.57 233.611   3
  -1   2   7 1085.52 214.218   2
  -1   2   6 18.3847 87.0710   3
   1  -2  -6 45.8096 83.1237   3
  -1   2   6 58.5255 67.6492   2
   1  -2  -5 57888.5 723.530   1
  -1   2   5 59062.1 1261.70   2
   1  -2  -4 10020.1 344.207   1
   1  -2  -4 9889.98 525.338   3
  -1   2   3 13297.1 466.029   2
   1  -2  -3 12404.7 468.581   2
   1  -2  -3 12513.0 501.495   3
   1  -2  -3 11793.3 380.121   1
   1  -2  -2 8154.81 326.303   2
   1  -2  -2 8118.38 335.021   3
   1  -2  -1 136196. 1157.99   3
   1  -2   0 136703. 1216.31   4
   1  -2   1 49799.1 825.781   4
   1  -2   2 114935. 1482.33   4
  -1   2  -2 110629. 1545.74   4
   1  -2   3 533.786 119.633   4
   1  -2   4 1944.72 263.933   4
  -1   2  -4 1683.52 249.961   4
   1  -2   5 50.7966 77.0449   4
  -1   2  -5 195.611 138.634   4
   1  -2   6 1229.08 263.805   3
  -1   2  -6 834.639 214.967   4
   1  -2   6 890.860 124.049   1
   1  -2   7 344.048 55.9222   1
   1  -2   7 359.708 178.119   3
   1  -2   7 329.424 45.4171   1
   1  -2   8 75.5137 126.074   3
   1  -2   9 3343.48 520.447   3
  -1   1  10 362.672 195.760   3
  -1   1  10 48.3209 116.890   2
  -1   1   9 464.163 192.407   2
  -1   1   9 492.995 192.036   3
  -1   1   8 4815.84 505.867   2
  -1   1   8 5214.59 521.369   3
  -1   1   7 935.652 231.244   2
  -1   1   7 609.638 176.889   3
  -1   1   6 3603.05 372.205   3
  -1   1   6 3582.04 425.236   4
  -1   1   6 3759.87 369.548   2
  -1   1   5 2473.81 281.532   2
  -1   1   5 2669.67 329.518   4
  -1   1   5 2656.26 286.487   3
   1  -1  -5 3067.87 344.907   3
   1  -1  -4 1035.45 176.490   3
   1  -1  -4 861.704 72.1464   1
  -1   1   3 33688.2 787.698   3
   1  -1  -3 33944.2 855.197   3
  -1   1   3 33047.2 782.221   2
   1  -1  -3 33386.6 502.031   1
  -1   1   2 70060.1 970.105   2
   1  -1  -2 71360.3 998.192   2
   1  -1  -2 71412.3 791.578   1
  -1   1   2 73657.0 950.946   3
   1  -1  -2 72195.8 1005.06   3
   1  -1  -1 141736. 1145.17   2
   1  -1  -1 144402. 1116.84   1
   1  -1  -1 145174. 1085.50   3
   1  -1   0 18725.3 361.701   4
   1  -1   1 355999. 1880.67   4
   1  -1   2 61.7648 40.7529   4
   1  -1   3 31430.9 864.977   4
   1  -1   4 7941.44 289.236   1
   1  -1   4 8427.94 514.104   4
   1  -1   5 21916.7 931.156   4
  -1   1  -5 20322.6 888.844   4
   1  -1   5 22321.2 465.445   1
   1  -1   6 788.636 213.843   3
   1  -1   6 1053.20 78.6671   1
   1  -1   6 1106.71 255.589   4
   1  -1   7 3748.89 451.967   3
   1  -1   8 981.321 274.525   3
   1  -1   9 296.115 156.683   3
   1  -1  10-215.168 201.970   3
  -1   0   9 242.695 161.369   2
  -1   0   9 396.204 157.534   3
  -1   0   8 734.914 216.904   3
  -1   0   8 692.028 212.212   2
  -1   0   7 91.7340 89.3423   3
  -1   0   6 7771.71 565.447   3
  -1   0   5 7969.24 573.630   4
  -1   0   5 7317.19 498.935   3
  -1   0   4 25141.8 815.616   3
  -1   0   4 23467.7 396.576   1
  -1   0   4 24834.2 906.884   4
  -1   0   3 307.132 86.5792   3
   1   0  -3 282.525 39.3135   1
  -1   0   3 417.954 104.062   4
   1   0  -3 252.096 84.3015   3
  -1   0   3 286.717 48.8311   1
  -1   0   2 29643.3 641.821   3
   1   0  -2 29714.8 678.126   3
  -1   0   2 28762.1 452.529   1
   1   0  -2 29572.7 397.057   1
   1   0  -1 317930. 1670.04   3
  -1   0   1 318681. 1583.41   3
  -1   0   1 322904. 1446.45   1
   1   0  -1 318722. 1401.93   1
  -1   0  -1 19764.7 361.534   4
   1   0   1 18684.1 341.854   1
   1   0   1 19121.6 346.946   4
   1   0   2 52558.6 834.287   4
   1   0   2 53003.8 567.735   1
  -1   0  -2 53566.7 576.248   1
   1   0   3 90442.2 732.817   1
   1   0   3 90214.7 1360.56   4
   1   0   4 25438.0 857.539   4
   1   0   4 24451.7 356.580   1
   1   0   5 10846.0 632.457   4
   1   0   6 12495.3 762.625   4
   1   0   6 13040.8 734.444   3
   1   0   7 198.494 113.937   3
   1   0   8 6530.91 617.317   3
   1   0   9 10.7290 117.029   3
   1   0  10 143.697 113.975   3
  -1  -1   9 4755.97 574.697   3
  -1  -1   8 343.170 176.527   3
  -1  -1   7 4624.64 492.388   3
  -1  -1   6 874.461 204.182   3
  -1  -1   5 9298.84 645.851   4
  -1  -1   5 8060.58 548.713   3
  -1  -1   5 7979.92 257.923   1
  -1  -1   4 131.425 90.3602   3
  -1  -1   4 170.766 43.5046   1
  -1  -1   4 134.292 78.3559   4
  -1  -1   3 1914.73 226.751   4
  -1  -1   3 1817.40 125.763   1
  -1  -1   3 1584.78 196.385   3
  -1  -1   2 87737.6 807.768   1
  -1  -1   2 88815.1 1205.03   3
  -1  -1   2 89548.6 1288.66   4
  -1  -1   1 18860.7 350.904   1
  -1  -1   1 18393.3 423.640   3
  -1  -1   1 18365.4 451.168   4
   1   1   0 6584.41 188.609   1
  -1  -1   0 7049.10 204.223   1
  -1  -1  -1 77458.0 652.565   1
   1   1   2 209459. 1000.05   1
  -1  -1  -2 211136. 1069.76   1
   1   1   2 212682. 1420.11   3
   1   1   2 211809. 1515.47   4
   1   1   3 3219.46 232.700   3
   1   1   3 3116.66 112.230   1
   1   1   3 3041.38 237.326   4
  -1  -1  -3 3379.92 139.129   1
   1   1   4 25765.2 820.844   4
  -1  -1  -4 25034.3 356.595   1
   1   1   5 104732. 1914.64   4
   1   1   6 1068.83 224.080   4
   1   1   7 699.212 193.606   3
   1   1   8 1886.56 326.098   3
   1   1   9-65.3937 80.2583   3
   1   1  10 127.939 124.481   3
  -1  -2   9-65.6426 123.450   3
  -1  -2   8 1388.04 312.688   3
  -1  -2   7-58.3898 116.436   3
  -1  -2   6 21195.6 1011.40   3
  -1  -2   6 20458.7 452.209   1
  -1  -2   5 22125.9 948.127   3
  -1  -2   5 22839.6 1032.98   4
  -1  -2   5 23635.0 534.691   1
  -1  -2   4 2491.10 170.751   1
  -1  -2   4 2719.08 307.638   3
  -1  -2   4 2542.51 311.509   4
  -1  -2   3 2492.53 260.545   3
  -1  -2   3 2531.57 160.094   1
  -1  -2   3 2508.91 273.608   4
  -1  -2   2 3229.47 170.329   1
  -1  -2   2 3171.11 260.947   4
   1   2  -2 3406.33 268.224   4
  -1  -2   2 3396.74 260.042   3
   1   2  -1 4941.71 259.633   4
  -1  -2   1 5272.14 267.157   4
   1   2   0 17997.3 360.968   4
  -1  -2   0 17527.5 333.216   4
   1   2   1 46700.6 417.479   4
   1   2   2 91825.6 800.062   3
  -1  -2  -2 90611.0 860.118   3
  -1  -2  -3 25287.5 401.551   1
   1   2   3 26134.1 592.425   3
  -1  -2  -3 25808.0 625.176   3
  -1  -2  -4 63242.7 1178.44   3
  -1  -2  -4 59361.3 617.976   1
   1   2   4 61773.3 1108.25   3
   1   2   5 9904.99 570.399   4
  -1  -2  -5 9821.50 253.430   1
   1   2   6 4239.18 425.378   4
   1   2   7 2368.52 307.346   3
   1   2   8 4253.63 451.828   3
   1   2   9 11.1020 119.917   3
   1   2  10 313.553 175.723   3
   1   2  11 538.871 194.726   2
   1   2  11 514.576 268.839   3
  -1  -3   8-70.2907 118.928   3
  -1  -3   7 26.2308 97.6562   3
  -1  -3   6 2240.71 342.628   3
  -1  -3   6 1956.00 174.576   1
  -1  -3   5 821.699 201.203   3
  -1  -3   5 950.884 125.491   1
  -1  -3   4 15110.7 772.680   4
  -1  -3   4 14820.1 464.825   1
  -1  -3   4 14210.2 733.738   3
  -1  -3   3 30503.4 960.420   3
  -1  -3   3 31026.2 637.124   1
  -1  -3   3 30991.3 973.616   4
   1   3  -2 11330.1 532.442   4
  -1  -3   2 11345.6 509.908   4
  -1  -3   1 51308.6 895.038   4
   1   3  -1 53057.4 978.191   4
   1   3   0 30237.9 596.651   4
  -1  -3   0 30460.9 546.472   4
  -1  -3  -1 4199.28 149.738   3
   1   3   1 4141.49 176.494   4
   1   3   2 27868.7 420.831   3
  -1  -3  -2 28314.4 472.707   3
   1   3   3 29799.6 576.979   3
  -1  -3  -3 29574.1 637.946   3
   1   3   4 2182.69 140.820   2
   1   3   4 2244.70 200.974   3
  -1  -3  -4 2161.60 217.054   3
  -1  -3  -5 15440.7 365.806   1
   1   3   5 15902.7 484.336   2
   1   3   6 10940.3 574.532   3
  -1  -3  -6 10250.2 291.058   1
   1   3   6 9744.86 444.633   2
  -1  -3  -6 10254.0 608.942   3
   1   3   7 55.5102 56.4181   3
  -1  -3  -7 116.249 34.7628   1
   1   3   8 3080.74 369.541   3
   1   3   8 3321.34 334.556   2
   1   3   9 1334.77 230.980   2
   1   3   9 1605.11 295.978   3
   1   3  10 1578.24 321.014   3
   1   3  10 880.607 209.887   2
   1   3  11-107.943 150.305   3
   1   3  11-0.93532 93.1338   2
   1   3  12 1063.24 285.735   2
  -1  -4   8 256.408 186.604   3
  -1  -4   7 133.902 147.664   3
  -1  -4   6 131.789 99.5688   3
  -1  -4   5 5686.42 334.185   1
  -1  -4   5 5296.28 519.178   3
   1   4  -4 763.746 203.797   4
  -1  -4   4 611.910 122.111   1
  -1  -4   4 758.381 194.531   3
  -1  -4   4 590.480 157.801   4
   1   4  -3 43.3508 75.7133   4
  -1  -4   3 232.122 102.080   4
  -1  -4   2-21.5679 53.1336   4
   1   4  -1 6487.49 388.580   4
  -1  -4   1 6812.48 355.717   4
   1   4   0 3806.30 252.612   4
  -1  -4   0 4005.28 233.316   4
   1   4   1 46.6791 38.9343   4
  -1  -4  -2 4301.53 198.935   3
   1   4   2 4060.85 213.420   4
  -1  -4  -3 51143.4 847.444   3
   1   4   3 49887.6 737.614   3
   1   4   4 1238.70 142.820   3
  -1  -4  -4 1011.28 145.310   3
  -1  -4  -5 7960.04 468.867   3
   1   4   6 1487.65 159.613   2
   1   4   6 1591.63 215.846   3
  -1  -4  -6 1573.37 239.492   3
   1   4   7 53.9012 73.6851   3
  -1  -4  -7 114.653 42.3865   1
  -1  -4  -7 57.9382 69.4539   3
   1   4   8 2866.18 349.107   3
  -1  -4  -8 2770.25 168.937   1
   1   4   8 2757.80 288.521   2
   1   4   9 1306.07 224.771   2
   1   4   9 1281.45 255.746   3
   1   4  10 261.664 123.522   2
   1   4  10 105.335 97.2554   3
   1   4  11 248.331 151.474   3
   1   4  11 118.132 117.051   2
   1   4  12 1137.68 272.338   2
  -1  -5   7 119.336 145.329   3
  -1  -5   6 1791.32 345.185   3
  -1  -5   5 89.3704 107.138   3
  -1  -5   5 239.187 78.3134   1
  -1  -5   4 7395.62 593.921   3
  -1  -5   4 6384.26 397.453   1
   1   5  -4 6036.40 562.853   4
  -1  -5   3 3830.45 369.651   4
   1   5  -3 3482.82 392.874   4
  -1  -5   2-1.38086 54.7479   4
  -1  -5   1 180.444 71.6713   4
  -1  -5   0 6725.22 340.995   4
   1   5   0 6606.13 379.050   4
   1   5   1 11746.2 443.495   4
  -1  -5  -2 10241.2 345.565   3
   1   5   2 11283.9 409.654   4
   1   5   3 61961.0 868.992   3
  -1  -5  -3 59996.8 941.951   3
   1   5   4 43147.7 810.085   3
  -1  -5  -4 43978.9 618.401   2
  -1  -5  -4 43737.4 952.403   3
  -1  -5  -5 70.9661 62.5902   3
   1   5   6 10.0761 56.7832   3
  -1  -5  -6 27.6509 53.1778   3
  -1  -5  -7 13602.3 777.184   3
   1   5   7 13660.6 660.165   3
  -1  -5  -8 2568.37 196.438   1
   1   5   8 2835.44 274.236   2
   1   5   8 2034.82 285.968   3
   1   5   9 3217.04 387.020   3
   1   5   9 3079.31 314.853   2
  -1  -5  -9 2902.09 192.187   1
   1   5  10 342.834 143.980   3
   1   5  10 640.174 165.584   2
   1   5  11 258.895 138.350   2
   1   5  11 5.06162 90.3294   3
   1   5  12 391.150 179.495   2
  -1  -6   6 65.8127 135.979   3
  -1  -6   5 26.2637 85.3804   3
   1   6  -4 23.4303 124.997   4
  -1  -6   4 39.6954 79.0874   3
  -1  -6   4 50.3903 47.3755   1
  -1  -6   3 667.603 171.424   4
   1   6  -3 817.270 220.696   4
   1   6  -2 8559.37 604.930   4
  -1  -6   2 8554.84 521.133   4
  -1  -6   1 12078.9 557.007   4
  -1  -6   0 4878.17 323.668   4
   1   6   1 133.534 60.1913   4
   1   6   2 193.780 63.0360   4
  -1  -6  -2 138.745 42.8172   3
   1   6   3 552.226 103.693   4
  -1  -6  -3 387.678 81.5226   3
  -1  -6  -4 18824.2 641.663   3
  -1  -6  -5 39.2630 27.3162   2
  -1  -6  -5 50.8114 57.9183   3
  -1  -6  -6 4257.07 388.642   3
   1   6   6 3477.73 296.349   3
  -1  -6  -7 37843.1 1285.31   3
   1   6   7 34575.7 1018.49   3
  -1  -6  -8 765.307 135.112   1
   1   6   8 1230.57 219.809   3
  -1  -6  -9 3041.60 234.859   1
   1   6   9 2991.98 367.243   3
   1   6  10 973.209 228.098   3
   1   6  11 52.6448 97.6093   3
  -1  -7   5 575.742 203.399   3
  -1  -7   4 123.560 105.895   3
   1   7  -4 138.272 98.0076   4
  -1  -7   4 347.834 119.241   1
   1   7  -3 216.902 106.441   4
  -1  -7   2 7126.10 503.743   4
   1   7  -2 8314.35 634.908   4
  -1  -7   1 4906.30 383.343   4
   1   7  -1 5781.36 495.581   4
  -1  -7   0 10889.3 524.950   4
   1   7   0 11290.9 625.354   4
  -1  -7  -1 116.202 51.2430   3
  -1  -7  -2 10584.1 426.286   3
  -1  -7  -3 226.438 64.6074   3
  -1  -7  -4 27.8396 37.6409   3
   1   7   4-27.9749 51.3972   4
  -1  -7  -5 3529.24 324.477   3
  -1  -7  -5 3599.87 225.804   2
   1   7   5 3547.45 279.179   3
   1   7   6 9387.87 483.528   3
  -1  -7  -6 9748.70 597.793   3
   1   7   7 3885.24 343.112   3
   1   7   8 10165.9 597.514   3
   1   7   9 454.375 148.944   3
  -1  -7  -9 461.496 115.702   1
  -1  -7 -10 578.788 115.526   1
   1   7  10 473.632 157.655   3
   1   7  11 1241.94 264.399   3
   1   8  -4 65.0725 142.466   4
   1   8  -3-373.080 171.378   4
  -1  -8   3-6.22317 59.6590   1
   1   8  -2 3637.45 453.228   4
   1   8  -1 78.9070 96.1259   4
   1   8   0 367.576 146.331   4
  -1  -8   0 478.647 126.233   4
   1   8   1 28465.9 994.897   4
  -1  -8  -1 25866.6 751.526   3
   1   8   2 12918.1 621.744   4
  -1  -8  -2 12283.9 498.670   3
   1   8   3 187.695 88.6446   4
  -1  -8  -3 238.510 66.7992   3
  -1  -8  -4 2611.26 259.226   3
   1   8   4 2341.15 257.447   4
  -1  -8  -5 85.2250 76.3792   3
   1   8   5 23.4196 45.5957   4
  -1  -8  -6-43.7703 83.6642   3
   1   8   6-80.3415 65.8646   3
  -1  -8  -6 30.1694 31.9637   2
   1   8   7 16754.9 708.554   3
   1   8   8 35.3655 58.9422   3
   1   8   9 482.271 146.437   3
  -1  -8 -10 1168.77 182.608   1
   1   8  10 941.991 215.154   3
   1   8  11 83.6056 89.4936   3
  -1  -9   3 1983.87 286.992   1
   1   9  -3 2785.00 450.893   4
   1   9  -2 184.888 111.628   4
   1   9  -1-184.569 132.565   4
   1   9   0 75.9019 71.7297   4
   1   9   1 1425.37 245.480   4
  -1  -9  -1 1564.76 201.677   3
   1   9   2 4077.06 390.747   4
  -1  -9  -2 4154.01 316.362   3
   1   9   3 15414.2 714.410   4
  -1  -9  -3 15845.3 631.162   3
   1   9   4-24.8410 68.7560   4
  -1  -9  -4 96.9527 71.3897   3
   1   9   5 3475.75 341.653   4
  -1  -9  -5 3344.32 338.237   3
   1   9   6 2203.50 279.133   4
   1   9   7 731.361 161.059   3
   1   9   8 1212.71 216.105   3
   1   9   9 140.045 94.0389   3
   1   9  10 570.662 176.774   3
  -1  -9 -10 553.975 134.556   1
   1   9  11 374.580 166.316   3
   1  10  -1 150.854 89.2305   4
   1  10   0 1340.35 281.808   4
   1  10   1 183.536 105.938   4
   1  10   2 140.330 95.8566   4
   1  10   3 644.666 165.253   4
   1  10   4 2129.61 289.086   4
   1  10   5 132.395 95.6956   4
   1  10   6 1249.23 225.979   4
   1  10   7 266.531 123.372   4
   1  10   8 1005.65 200.612   3
   1  10   9 352.865 136.293   3
   1  10  10 212.571 129.933   3
  -1 -10 -10 349.622 116.852   1
   1  11   1 170.995 115.936   4
   1  11   2-12.7353 73.5002   4
   1  11   3 220.638 120.262   4
   1  11   4 0.71582 82.9854   4
   1  11   5 332.063 121.024   4
   1  11   6 1696.24 274.809   4
   1  11   7 24.8296 71.9882   4
   1  11   8 202.343 114.354   4
   1  11   9-263.371 134.092   4
   1  11  10 32.3744 62.3787   3
   1  12   4 15.2225 71.0466   4
   1  12   5 629.286 184.523   4
   1  12   6 144.461 98.1623   4
   1  12   7 275.580 152.634   4
   1  12   8 266.036 146.113   4
   1  12   9 1.94777 98.4191   4
  -2  11   6-40.5551 99.5764   4
  -2  11   5 272.816 136.434   4
  -2  11   4 287.684 155.156   4
  -2  11   3 68.4979 90.0573   4
  -2  11   2 679.948 233.475   4
  -2  11   1 372.400 175.863   4
  -2  11   0 271.384 128.914   4
  -2  11  -1 275.767 247.840   4
  -2  10   7 214.791 145.700   4
  -2  10   6 1039.80 246.089   4
  -2  10   5 622.809 195.567   4
  -2  10   4 1245.20 270.455   4
  -2  10   3 2051.02 336.318   4
  -2  10   2 1710.51 316.591   4
  -2  10   1-94.5378 92.1641   4
  -2  10   0 1226.01 294.760   4
  -2  10  -1-303.995 173.975   4
  -2  10  -2 513.312 229.795   4
  -2   9   8 70.0833 81.8460   3
  -2   9   7 120.930 101.023   3
  -2   9   6 524.288 182.798   4
  -2   9   5 521.523 170.555   4
  -2   9   4 111.691 81.4178   4
  -2   9   3 5000.89 491.953   4
  -2   9   2 1878.73 304.392   4
  -2   9   1 390.453 132.727   4
  -2   9   0-165.087 125.610   4
  -2   9  -1 164.396 134.437   4
  -2   9  -2 630.060 241.381   4
  -2   9  -3 15.9930 146.063   4
  -2   9  -4 81.8181 190.319   4
  -2   8   9-149.858 119.949   3
  -2   8   8 4514.85 466.759   3
  -2   8   7 74.2567 79.6307   3
  -2   8   6 12820.9 722.291   3
  -2   8   5 765.183 193.583   4
  -2   8   4 83.2615 72.8489   4
  -2   8   3 12.6504 65.6694   4
  -2   8   2 4175.82 417.926   4
  -2   8   1 930.311 211.238   4
  -2   8   0 134.339 116.110   4
  -2   8  -1 5374.91 543.016   4
  -2   8  -2-74.4596 87.3592   4
  -2   8  -3 158.439 124.555   4
  -2   8  -4 317.343 205.387   4
  -2   8  -5 46.7193 119.735   4
  -2   7   9 1317.91 259.048   3
  -2   7   8 250.881 122.006   3
  -2   7   7 133.771 94.1949   3
  -2   7   6 2937.42 332.700   3
   2  -7  -5 7750.36 531.949   2
  -2   7   5 7154.97 507.443   3
  -2   7   4 399.321 129.942   4
  -2   7   3 900.581 184.407   4
  -2   7   2 15110.7 739.655   4
  -2   7   1 400.693 113.861   4
  -2   7   0 481.893 164.481   4
  -2   7  -1 1395.39 270.176   4
  -2   7  -2 1530.40 294.886   4
  -2   7  -3 856.879 243.954   4
  -2   7  -4 1620.78 350.912   4
  -2   7  -5 389.704 204.945   4
  -2   7  -6 244.795 204.193   4
  -2   6   9 1894.39 315.332   3
  -2   6   8 320.276 121.212   3
   2  -6  -7 3483.59 360.344   1
  -2   6   7 3615.56 381.801   3
  -2   6   6 880.368 185.888   3
  -2   6   5 746.135 164.233   3
   2  -6  -5 716.001 158.762   2
   2  -6  -4 10533.7 571.657   2
  -2   6   4 11792.3 583.089   3
   2  -6  -3 21.1016 40.6143   3
  -2   6   3-61.2266 70.3683   4
  -2   6   2 4157.21 362.114   4
   2  -6  -2 4220.17 339.958   3
  -2   6   1 6654.24 458.603   4
   2  -6  -1 6333.96 411.189   3
   2  -6   0 6592.79 455.697   4
  -2   6   0 5985.09 458.945   4
  -2   6  -1 1059.96 212.924   4
   2  -6   1 1419.15 222.859   4
  -2   6  -2 278.411 110.184   4
  -2   6  -3 194.096 151.537   4
  -2   6  -4 811.428 230.392   4
  -2   6  -5 98.2690 90.0328   4
  -2   6  -6 339.639 191.379   4
  -2   6  -7 10.4072 155.289   4
  -2   5   9 88.9866 83.7089   3
  -2   5   8 3819.50 414.231   3
  -2   5   7 1108.21 216.784   3
  -2   5   6 130.130 106.617   3
   2  -5  -5-15.6565 54.0927   2
  -2   5   5 41.5641 56.8889   3
   2  -5  -4 2457.56 266.266   2
  -2   5   4 2114.94 237.433   3
   2  -5  -4 2108.01 264.452   3
   2  -5  -3 4623.64 354.183   3
  -2   5   3 4819.76 340.154   3
   2  -5  -2 5798.51 374.041   3
   2  -5  -1 23520.6 730.491   3
  -2   5   0 16.0660 65.2596   4
   2  -5   0-23.9963 71.5308   4
   2  -5   1 38373.5 1060.53   4
  -2   5  -1 36966.5 1106.00   4
  -2   5  -2 2530.54 321.088   4
   2  -5   2 2931.75 311.062   4
  -2   5  -3 473.995 164.315   4
  -2   5  -4 635.049 202.800   4
  -2   5  -5 4363.03 526.179   4
  -2   5  -6 65.2517 109.070   4
  -2   5  -7 151.003 166.254   4
  -2   5  -8 560.091 296.980   4
   2  -5   8 193.418 179.266   3
  -2   4   9 169.025 102.354   3
  -2   4   8 14.3466 82.4191   3
   2  -4  -7 1797.00 195.313   1
  -2   4   7 1636.94 256.990   3
   2  -4  -6 1327.46 190.556   1
  -2   4   6 1053.74 200.353   3
   2  -4  -5 4106.41 405.092   3
   2  -4  -5 4054.14 334.682   1
  -2   4   5 2949.91 296.031   3
   2  -4  -4 976.601 170.117   2
   2  -4  -4 1541.43 227.388   3
   2  -4  -3 388.501 94.3572   3
   2  -4  -3 260.247 89.7078   2
   2  -4  -2 6240.46 365.371   3
   2  -4  -1 1139.63 153.948   3
   2  -4   0 6196.97 372.160   4
   2  -4   1 1208.02 174.431   4
  -2   4  -2 7563.25 503.424   4
   2  -4   2 7320.21 453.635   4
  -2   4  -3 94.7742 95.0447   4
   2  -4   3-61.4293 57.5031   4
  -2   4  -4 9767.37 682.239   4
  -2   4  -5 4874.93 527.093   4
   2  -4   6 504.506 157.878   1
  -2   4  -6 405.137 186.971   4
  -2   4  -7 3600.35 518.510   4
   2  -4   8-177.313 162.689   3
  -2   4  -8 342.362 196.272   4
  -2   3  10 1103.37 317.197   2
  -2   3   9 188.049 104.641   2
  -2   3   9 286.803 154.478   3
  -2   3   8 681.736 189.330   2
  -2   3   8 326.159 129.737   3
  -2   3   7 74.8563 85.1742   2
  -2   3   7 110.028 61.8584   3
   2  -3  -7 10.4375 30.3849   1
  -2   3   6 500.780 140.534   3
   2  -3  -6 587.767 107.336   1
  -2   3   6 359.195 130.396   2
  -2   3   5 255.245 102.504   3
   2  -3  -5 295.017 85.0237   1
   2  -3  -5 247.962 104.939   3
   2  -3  -4 41312.8 1131.26   3
   2  -3  -4 40849.2 1084.25   2
   2  -3  -4 42354.1 992.866   1
   2  -3  -3 308.701 90.3382   1
   2  -3  -3 419.475 105.380   3
   2  -3  -3 489.506 110.059   2
   2  -3  -2 28312.7 738.593   3
   2  -3  -1-27.8942 37.1961   3
   2  -3   0 235.341 65.7273   4
   2  -3   1-12.6922 37.0266   4
   2  -3   2 10391.0 495.676   4
   2  -3   3 14383.9 649.598   4
  -2   3  -4 1974.91 295.567   4
   2  -3   4 2344.32 291.292   4
   2  -3   5 6232.03 428.536   1
  -2   3  -5 6176.22 557.527   4
   2  -3   6 4232.09 353.228   1
  -2   3  -6 4576.13 522.234   4
  -2   3  -7-56.1101 119.844   4
  -2   3  -8 530.223 228.751   4
   2  -3   8 302.971 182.170   3
   2  -3   9 267.397 145.028   3
  -2   2   9 1739.71 315.546   3
  -2   2   9 1938.24 347.866   2
  -2   2   8 105.619 94.1085   2
  -2   2   8 269.529 138.286   3
  -2   2   7 1570.10 276.917   2
  -2   2   7 1442.55 259.911   3
   2  -2  -6 1366.94 113.022   1
  -2   2   6 1437.38 234.336   3
  -2   2   6 1530.68 246.112   2
   2  -2  -5 852.948 113.975   1
  -2   2   5 588.266 149.893   2
   2  -2  -5 881.158 195.129   3
  -2   2   5 612.083 145.208   3
  -2   2   4 1037.97 164.497   3
   2  -2  -4 905.637 127.303   1
  -2   2   4 843.486 158.470   2
   2  -2  -4 873.299 172.996   3
   2  -2  -3 419.076 104.848   3
   2  -2  -3 556.363 116.816   2
   2  -2  -3 436.931 100.515   1
   2  -2  -2 40357.0 869.745   2
   2  -2  -2 38854.3 853.970   1
   2  -2  -2 39511.9 837.956   3
   2  -2  -1 80.5177 38.3369   3
   2  -2  -1 82.6328 54.7575   1
   2  -2   0 51728.2 850.255   4
   2  -2   1 51103.3 892.646   4
   2  -2   2 12272.7 490.230   4
   2  -2   3 15690.6 633.198   4
   2  -2   3 16169.3 564.318   1
   2  -2   4 1886.76 245.972   4
   2  -2   4 1571.32 192.977   1
   2  -2   5 5967.95 489.409   4
   2  -2   5 5912.52 366.517   1
  -2   2  -5 6452.67 536.050   4
  -2   2  -6 7815.96 640.117   4
   2  -2   6 7761.62 403.169   1
   2  -2   7 1514.41 166.071   1
  -2   2  -7 1960.86 354.673   4
   2  -2   8 76.5753 115.596   3
   2  -2   9-1.31710 107.637   3
  -2   1   9 115.094 106.728   2
  -2   1   9 105.897 122.651   3
  -2   1   8-56.7851 79.2075   2
  -2   1   8-67.0672 130.465   3
  -2   1   7 14395.6 847.638   2
  -2   1   7 14304.8 812.521   3
  -2   1   6 221.894 104.089   2
  -2   1   6 561.266 156.883   3
  -2   1   5 6573.43 479.564   2
   2  -1  -5 7338.88 246.428   1
   2  -1  -5 7032.33 542.116   3
  -2   1   5 7185.85 479.050   3
   2  -1  -4 3476.18 203.691   1
  -2   1   4 3475.32 319.949   2
  -2   1   4 3217.66 289.296   3
   2  -1  -4 4105.68 373.785   3
   2  -1  -3 17726.3 662.045   3
  -2   1   3 17606.3 591.478   3
  -2   1   3 17198.6 497.034   1
   2  -1  -3 17571.4 494.500   1
  -2   1   2 19819.7 538.089   1
   2  -1  -2 19817.2 586.925   3
  -2   1   2 20499.2 543.661   3
   2  -1  -2 20438.9 634.919   2
   2  -1  -2 19706.1 547.593   1
   2  -1  -1 26982.0 634.004   2
   2  -1  -1 27552.3 570.621   3
  -2   1   1 26630.1 619.769   1
   2  -1  -1 25234.6 621.789   1
  -2   1   1 27119.3 540.120   3
  -2   1   0 998932. 3781.54   1
  -2   1   0 999999. 3239.43   4
  -2   1  -1 871308. 3528.87   1
   2  -1   1 869151. 3184.76   4
  -2   1  -2 19183.4 585.179   4
   2  -1   2 18113.2 537.472   4
   2  -1   2 17619.0 514.880   1
   2  -1   3 340.516 100.683   4
   2  -1   3 515.535 91.3442   1
   2  -1   4 54879.0 1281.15   4
   2  -1   4 55814.4 940.793   1
   2  -1   5 60.9932 78.7339   4
   2  -1   5 78.9204 44.9527   1
   2  -1   6 10333.1 697.868   4
   2  -1   6 10782.8 387.917   1
  -2   1  -6 10285.1 692.658   4
  -2   1  -7 5561.03 555.323   4
   2  -1   7 6149.89 574.251   3
   2  -1   7 5905.50 240.797   1
   2  -1   8 3613.70 492.096   3
   2  -1   9-63.2761 105.598   3
   2  -1  10 176.627 143.753   3
  -2   0   9 822.448 244.890   3
  -2   0   8 276.689 163.433   2
  -2   0   8 709.661 210.923   3
  -2   0   7 1766.05 323.686   2
  -2   0   7 1840.68 297.943   3
  -2   0   6 2185.26 296.061   3
  -2   0   6 2555.11 353.035   2
  -2   0   5 583.562 151.836   3
  -2   0   5 546.092 90.2763   1
  -2   0   5 1045.80 212.900   2
  -2   0   5 872.113 198.255   4
   2   0  -4 4004.90 184.738   1
   2   0  -4 4554.43 398.922   3
  -2   0   4 3886.32 328.652   3
  -2   0   4 4351.34 395.451   4
  -2   0   4 3542.15 226.699   1
  -2   0   4 4202.78 367.937   2
   2   0  -3 146.543 37.3122   1
  -2   0   3 238.564 64.6115   1
   2   0  -3 177.860 80.5530   3
  -2   0   3 130.918 67.4767   3
   2   0  -2 54.9134 37.1676   1
  -2   0   2 137.427 62.4693   3
  -2   0   2 81.7342 52.3230   1
   2   0  -2 62.8758 56.7900   3
   2   0  -1 38502.1 789.935   2
  -2   0   1 39185.0 619.008   3
  -2   0   1 38566.4 720.614   1
   2   0  -1 39295.6 677.281   3
   2   0  -1 39215.3 694.630   1
  -2   0   0 306112. 1998.52   1
   2   0   0 304439. 1967.53   1
   2   0   0 306008. 1480.47   3
  -2   0   0 304490. 1475.90   3
   2   0   0 308823. 1891.65   2
   2   0   1 14980.7 336.956   4
  -2   0  -1 13917.6 424.844   1
  -2   0  -1 14777.4 344.801   4
   2   0   2 14965.6 430.400   4
  -2   0  -2 15368.7 437.425   1
   2   0   2 14598.0 426.118   1
  -2   0  -2 15435.5 462.916   4
   2   0   3 36.7971 44.1329   1
   2   0   3-30.4623 48.7307   4
  -2   0  -3 20.7544 51.6222   4
  -2   0  -3-1.87334 42.0240   1
   2   0   4 64538.0 1332.34   4
  -2   0  -4 65355.4 924.809   1
   2   0   4 65735.4 895.520   1
   2   0   5 23928.2 519.637   1
   2   0   5 23119.8 909.492   4
  -2   0  -6 2915.15 353.155   4
   2   0   6 3144.32 169.552   1
   2   0   6 3563.99 392.882   4
   2   0   7 10041.7 707.543   3
   2   0   7 9693.83 198.204   1
   2   0   8 1220.71 284.800   3
   2   0   9-179.107 155.136   3
   2   0  10 1148.25 316.671   3
  -2  -1   9 331.521 201.227   3
  -2  -1   8 5064.11 542.863   3
  -2  -1   8 3857.00 512.836   2
  -2  -1   7 665.002 213.481   2
  -2  -1   7 934.601 215.835   3
  -2  -1   6 152.513 45.8030   1
  -2  -1   6 301.897 127.802   3
  -2  -1   6 254.779 129.307   2
  -2  -1   5 35190.0 1131.69   3
  -2  -1   5 34690.5 708.840   1
  -2  -1   5 36262.6 1303.45   4
  -2  -1   4 6028.50 423.054   3
  -2  -1   4 5945.69 304.702   1
  -2  -1   4 6167.70 482.000   4
  -2  -1   3 37528.9 931.301   3
  -2  -1   3 37458.6 753.564   1
  -2  -1   3 36724.0 1032.07   4
   2   1  -2 30003.6 784.017   3
   2   1  -2 31172.9 551.863   1
  -2  -1   2 30922.9 714.563   3
  -2  -1   2 31986.0 671.696   1
  -2  -1   2 30344.5 802.089   4
   2   1  -1 6497.60 259.507   1
  -2  -1   1 6548.06 292.590   1
   2   1  -1 6493.56 290.421   3
  -2  -1   1 6459.53 261.523   3
  -2  -1   1 6321.70 333.456   2
  -2  -1   0 2740.98 186.090   1
   2   1   0 2964.88 178.742   1
   2   1   0 3114.85 142.368   3
  -2  -1   0 3352.99 131.246   3
  -2  -1   0 2790.15 184.524   2
   2   1   1 6155.97 144.352   4
  -2  -1  -1 6441.07 158.818   4
   2   1   1 5832.10 216.410   2
  -2  -1  -1 6036.95 271.600   1
   2   1   2 2808.74 162.846   4
   2   1   2 2574.63 173.083   1
  -2  -1  -2 2908.60 170.074   4
  -2  -1  -2 2768.19 184.969   1
  -2  -1  -3 51048.0 923.464   4
  -2  -1  -3 49913.6 773.826   1
   2   1   3 50193.1 918.517   4
   2   1   3 50510.0 726.114   1
   2   1   4 8238.26 282.612   1
   2   1   4 7830.17 445.521   4
  -2  -1  -4 8250.02 310.800   1
   2   1   5 27621.2 952.293   4
  -2  -1  -5 26629.9 542.668   1
   2   1   5 26693.4 468.140   1
   2   1   6 11.5624 16.1215   1
   2   1   6-30.9061 62.6617   3
   2   1   6 87.9126 73.0970   4
   2   1   7 4150.03 432.438   3
   2   1   8 573.337 189.068   3
   2   1   9 269.951 159.017   3
   2   1  10 1163.42 298.273   3
   2   1  11 214.724 185.911   3
  -2  -2   8 70.2181 107.199   3
  -2  -2   7 3334.57 435.681   3
  -2  -2   6 91.5977 71.6383   3
  -2  -2   6 72.5788 39.8296   1
  -2  -2   5 5951.39 320.488   1
  -2  -2   5 5592.35 471.622   3
  -2  -2   5 6218.81 558.300   4
  -2  -2   4 8243.48 575.104   4
  -2  -2   4 8422.87 385.359   1
  -2  -2   4 8637.40 527.544   3
  -2  -2   3 828.294 164.706   4
  -2  -2   3 646.267 108.580   1
  -2  -2   3 879.960 158.360   3
  -2  -2   2 21735.8 647.775   3
  -2  -2   2 22209.3 580.353   1
  -2  -2   2 22848.7 719.115   4
  -2  -2   1 15714.6 441.898   3
  -2  -2   1 15043.0 472.288   4
  -2  -2   1 15643.3 463.132   1
  -2  -2   0 45064.8 754.842   1
   2   2   0 45746.7 676.336   1
  -2  -2   0 46881.2 512.305   3
  -2  -2   0 44823.7 554.131   4
  -2  -2  -1 1117.23 118.437   1
  -2  -2  -1 1191.81 103.698   2
  -2  -2  -2 26429.0 555.649   1
   2   2   2 24940.8 419.725   4
   2   2   2 24907.1 378.439   3
   2   2   2 26055.7 335.019   2
   2   2   2 24991.4 499.288   1
   2   2   3 14127.1 366.127   1
   2   2   3 14664.5 462.510   4
   2   2   3 15062.4 435.558   3
  -2  -2  -3 15064.8 423.030   1
   2   2   4 10357.0 301.198   1
  -2  -2  -4 10097.4 354.738   1
   2   2   4 10579.5 456.045   3
   2   2   4 11000.6 495.696   4
   2   2   5 23848.2 863.226   4
  -2  -2  -5 23511.6 536.111   1
   2   2   6 12111.0 638.689   3
   2   2   6 12098.9 697.210   4
  -2  -2  -6 12517.6 376.651   1
  -2  -2  -7 2208.89 149.975   1
   2   2   7 2260.97 306.049   3
   2   2   7 2565.86 359.590   4
   2   2   8 4361.54 461.476   3
   2   2   9 342.334 143.151   3
   2   2  10 95.6227 112.055   3
   2   2  11 2022.26 392.062   3
  -2  -3   8 177.969 128.568   3
  -2  -3   7 225.617 147.517   3
  -2  -3   6 84.7972 106.911   3
  -2  -3   5 1533.96 258.692   3
  -2  -3   5 1651.51 190.185   1
  -2  -3   4 3015.24 330.682   3
  -2  -3   4 3739.86 393.313   4
  -2  -3   4 3124.38 254.945   1
  -2  -3   3 512.510 96.6558   1
  -2  -3   3 533.806 131.147   3
  -2  -3   3 620.025 147.392   4
  -2  -3   2 825.963 119.884   1
  -2  -3   2 783.046 139.020   3
  -2  -3   2 817.846 144.593   4
  -2  -3   1 9829.84 389.930   1
  -2  -3   1 9396.85 381.897   3
  -2  -3   1 10347.4 404.642   4
  -2  -3   0 80555.7 1059.67   1
  -2  -3   0 77595.6 839.215   3
   2   3   0 78459.8 894.633   4
  -2  -3   0 78116.9 806.788   4
   2   3   1 10507.4 225.651   4
  -2  -3  -1 11006.5 381.550   1
   2   3   2 31039.6 290.511   3
  -2  -3  -2 31282.3 404.697   2
  -2  -3  -2 32910.8 648.501   1
   2   3   3 2583.99 152.552   3
  -2  -3  -3 2977.86 195.427   1
   2   3   4 117.913 57.7681   3
  -2  -3  -4 133.988 51.6126   1
   2   3   5 23484.4 737.192   3
  -2  -3  -5 24108.7 558.540   1
  -2  -3  -6 4911.80 260.238   1
   2   3   6 4647.35 422.930   4
  -2  -3  -7 13260.3 418.288   1
   2   3   7 13426.4 702.801   3
   2   3   7 13984.8 813.408   4
   2   3   8 58.4357 81.2640   3
  -2  -3  -8 20.8354 34.2226   1
   2   3   9 1079.17 242.518   3
   2   3  10 361.358 153.150   3
   2   3  11 108.341 116.673   2
   2   3  11 256.112 169.823   3
   2   3  12 239.871 164.198   2
  -2  -4   7 113.122 126.284   3
  -2  -4   6 149.076 89.6149   3
  -2  -4   5 830.615 148.058   1
  -2  -4   5 1022.78 230.973   3
  -2  -4   4 502.806 151.757   4
  -2  -4   4 604.687 119.620   1
  -2  -4   4 505.148 161.419   3
  -2  -4   3 463.818 129.259   4
  -2  -4   3 373.570 121.215   3
  -2  -4   3 327.851 90.2339   1
   2   4  -2 67.6326 76.4035   4
  -2  -4   2 97.0132 71.7885   4
  -2  -4   2 6.15216 52.3673   1
  -2  -4   2 79.4991 66.6393   3
  -2  -4   1 6316.77 347.764   1
  -2  -4   1 7203.49 359.240   4
   2   4  -1 7505.73 403.290   4
  -2  -4   1 6632.53 358.101   3
  -2  -4   0 7677.80 363.936   1
   2   4   0 7983.10 345.519   4
  -2  -4   0 7964.46 294.130   4
  -2  -4  -1 19808.3 555.032   1
   2   4   1 18786.4 425.201   4
   2   4   2 60172.9 669.528   4
  -2  -4  -2 61707.5 954.344   1
  -2  -4  -2 59854.5 577.965   3
  -2  -4  -3 3498.15 194.668   3
  -2  -4  -3 3556.96 229.955   1
   2   4   3 3666.32 163.962   3
  -2  -4  -4 45561.0 818.798   1
  -2  -4  -4 46112.7 903.473   3
   2   4   4 46537.4 777.271   3
  -2  -4  -5 8875.20 466.285   3
   2   4   5 7918.74 397.458   3
  -2  -4  -5 7978.50 344.356   1
   2   4   6 7189.07 292.223   2
  -2  -4  -6 7274.93 331.187   1
   2   4   7 118.800 59.5466   2
  -2  -4  -7 155.468 57.6079   1
   2   4   7 216.601 97.4225   3
   2   4   7-21.7616 97.5775   4
   2   4   8 16577.8 818.822   3
  -2  -4  -8 16392.9 500.441   1
  -2  -4  -9 516.772 79.0018   1
   2   4   9 650.166 180.364   3
   2   4   9 306.449 104.462   2
   2   4  10 196.472 106.219   2
   2   4  10 475.055 168.588   3
   2   4  11-51.6455 95.3256   3
   2   4  11 117.096 95.0556   2
   2   4  12 63.8749 87.7947   2
  -2  -5   6 178.757 143.672   3
  -2  -5   5 3256.35 419.225   3
  -2  -5   4 2973.08 363.361   3
  -2  -5   4 3098.06 293.777   1
  -2  -5   3 605.823 151.593   4
  -2  -5   3 774.186 146.742   1
  -2  -5   3 568.512 159.656   3
  -2  -5   2 5792.42 374.548   1
  -2  -5   2 5960.82 428.618   3
  -2  -5   2 6368.06 417.696   4
  -2  -5   1 898.934 134.914   4
   2   5  -1 735.492 143.808   4
  -2  -5   1 546.190 122.864   1
  -2  -5   0-0.94115 30.6228   4
   2   5   0-25.7792 39.3564   4
   2   5   1 2755.40 202.294   4
  -2  -5  -2 16384.6 347.006   3
   2   5   2 16475.1 433.481   4
   2   5   3 14323.1 407.021   4
  -2  -5  -3 13673.9 392.312   3
  -2  -5  -4 2406.01 205.024   3
   2   5   4 2702.05 179.982   3
  -2  -5  -5 3626.18 250.140   1
  -2  -5  -5 3326.93 284.178   3
   2   5   5 3340.27 241.289   3
  -2  -5  -6 13856.3 664.407   3
  -2  -5  -6 13786.4 490.085   1
  -2  -5  -7 37287.8 1219.31   3
   2   5   7 37001.4 1064.14   3
  -2  -5  -7 36840.8 815.898   1
   2   5   8 14233.1 535.184   2
   2   5   8 13687.6 718.444   3
  -2  -5  -8 14470.5 510.652   1
   2   5   9 1267.86 243.085   3
   2   5   9 1418.30 195.888   2
  -2  -5  -9 1582.34 172.704   1
   2   5  10 6304.08 458.352   2
   2   5  10 6541.38 584.000   3
   2   5  11 4.01763 102.451   3
   2   5  11-98.0039 82.1813   2
   2   5  12 40.3959 91.4428   2
  -2  -6   5 77.5776 97.8783   3
  -2  -6   4-7.52417 65.7985   1
  -2  -6   4-105.965 114.525   3
  -2  -6   3 8635.46 505.390   1
  -2  -6   3 8552.60 601.319   3
  -2  -6   2 44.3081 59.5649   4
   2   6  -2 10.8442 60.4782   4
  -2  -6   2-48.3960 62.6048   1
  -2  -6   2 33.8469 56.9140   3
  -2  -6   1 477.857 115.668   1
  -2  -6   1 539.342 109.585   4
  -2  -6   0 17572.1 561.376   4
   2   6   0 18686.9 702.550   4
   2   6   1 5273.45 330.660   4
  -2  -6  -2 6697.15 259.432   3
   2   6   2 6817.02 332.587   4
  -2  -6  -3 4417.45 239.447   3
   2   6   3 4227.81 255.718   4
  -2  -6  -4 4119.85 274.189   3
   2   6   4 4200.87 230.030   3
  -2  -6  -5 12514.1 552.866   3
   2   6   5 11423.7 433.662   3
  -2  -6  -6 6865.14 468.287   3
  -2  -6  -7 22375.6 693.385   1
   2   6   7 24293.7 815.728   3
  -2  -6  -7 22962.1 961.423   3
   2   6   8 1059.06 187.546   3
  -2  -6  -8 1059.36 157.723   1
   2   6   9 3820.39 398.796   3
  -2  -6  -9 3975.37 294.268   1
  -2  -6 -10 788.318 131.824   1
   2   6  10 716.080 199.052   3
   2   6  11 4.01648 59.8722   2
   2   6  11 40.0128 97.6118   3
   2   6  12-37.3237 119.620   3
  -2  -7   3-23.3216 65.5090   1
  -2  -7   3-91.3953 110.778   3
  -2  -7   2 8044.66 512.111   1
  -2  -7   2 8086.40 554.592   3
   2   7  -2 8723.87 623.262   4
   2   7  -1 1826.25 270.915   4
  -2  -7   1 1735.72 221.721   1
  -2  -7   1 1602.68 206.697   4
  -2  -7   0 301.679 85.5273   4
   2   7   1-4.33235 43.2179   4
  -2  -7  -1-1.13618 34.4184   3
   2   7   2 13295.7 542.827   4
  -2  -7  -2 13822.1 421.405   3
   2   7   3 2129.49 204.108   4
  -2  -7  -3 2012.77 173.355   3
  -2  -7  -4 2803.79 232.644   3
  -2  -7  -5 986.674 75.6859   2
  -2  -7  -5 1023.19 166.485   3
  -2  -7  -6 14174.4 679.021   3
   2   7   6 13607.8 536.012   3
  -2  -7  -7 4339.10 349.256   1
   2   7   7 4534.21 348.600   3
  -2  -7  -7 4246.49 414.336   3
   2   7   8 10866.1 592.254   3
  -2  -7  -8 11064.4 522.913   1
  -2  -7  -9 4406.55 334.992   1
   2   7   9 4976.19 438.379   3
   2   7  10 226.472 104.870   3
  -2  -7 -10 31.7400 42.7361   1
   2   7  11 770.707 215.776   3
   2   7  12 3339.32 464.392   3
   2   8  -3 42.5121 99.6054   4
  -2  -8   3 186.828 112.749   1
   2   8  -2 539.470 176.670   4
  -2  -8   2 392.733 126.577   1
  -2  -8   2 432.996 154.822   3
   2   8  -1 237.497 113.264   4
  -2  -8   1 7.96370 58.5066   1
  -2  -8   0 874.894 150.673   4
   2   8   0 859.053 193.888   4
  -2  -8  -1 13298.5 468.538   3
  -2  -8  -2 45.9662 46.4247   3
  -2  -8  -3 18733.0 568.933   3
  -2  -8  -4 21373.0 678.911   3
   2   8   5 349.064 93.6975   4
  -2  -8  -5 201.829 80.9376   3
   2   8   6-21.6362 35.2225   3
  -2  -8  -6-110.413 74.4821   3
   2   8   7-28.8480 52.3845   3
  -2  -8  -7 70.9819 58.6098   3
  -2  -8  -8 211.582 87.1848   1
   2   8   8 128.479 79.2448   3
  -2  -8  -9 20.3042 58.4838   1
   2   8   9-67.1793 84.4186   3
   2   8  10 217.332 97.9312   3
  -2  -8 -10 315.972 102.152   1
   2   8  11-48.4877 73.3414   3
  -2  -9   2 330.543 141.804   1
  -2  -9   1 41.8614 68.5998   1
   2   9  -1 85.9607 97.0546   4
   2   9   0 3326.01 393.821   4
   2   9   1-68.3220 64.3909   4
   2   9   2-67.0419 79.6126   4
   2   9   3 1611.46 224.163   4
  -2  -9  -3 1576.34 178.791   3
   2   9   4 26.5369 50.8953   4
  -2  -9  -4 122.925 56.1005   3
  -2  -9  -5 814.298 151.065   3
   2   9   5 662.155 139.070   4
   2   9   6 4005.97 348.781   4
  -2  -9  -6 3931.17 370.515   3
   2   9   7 1482.27 211.394   3
  -2  -9  -7 1353.44 255.972   3
   2   9   8 137.801 75.0075   3
   2   9   9-87.0318 75.4217   3
  -2  -9  -9-44.3953 51.3320   1
   2   9  10 93.6927 89.2197   3
  -2  -9 -10 75.0136 62.6125   1
   2   9  11 2251.09 334.224   3
  -2 -10   1 254.468 104.871   1
  -2 -10   0-18.2056 88.9908   1
   2  10   1 114.891 87.0199   4
   2  10   2 2134.16 301.649   4
   2  10   3 1220.28 221.993   4
   2  10   4 74.0537 78.3251   4
   2  10   5 125.466 85.8027   4
   2  10   6 230.404 98.8536   4
   2  10   7-85.4662 79.7196   4
   2  10   8-39.4958 66.0281   3
   2  10   9 257.266 113.634   3
  -2 -10  -9 342.184 131.401   1
  -2 -10 -10 39.8232 76.2963   1
   2  10  10-238.854 113.965   3
   2  10  11 34.7342 65.2224   3
   2  11   4 21.0534 66.0777   4
   2  11   5-137.436 86.9751   4
   2  11   6 170.196 114.642   4
   2  11   7 43.7143 54.2605   4
   2  11   8 242.916 120.214   4
  -2 -11  -9 88.3720 86.6848   1
   2  11   9-62.1379 71.5141   4
   2  11  10 1552.08 266.457   3
  -2 -11 -10 1628.65 281.488   1
   2  11  11 1951.35 319.573   3
   2  12   7 613.029 178.066   4
   2  12   8 68.0980 101.023   4
   2  12   9 57.8127 83.1776   4
   2  12  10 423.249 213.797   4
  -3  11   4 290.360 171.355   4
  -3  11   3-250.532 159.304   4
  -3  11   2 2108.19 403.382   4
  -3  11   1 99.2536 140.231   4
  -3  10   6 672.980 236.004   4
  -3  10   5 357.444 167.130   4
  -3  10   4 922.536 238.877   4
  -3  10   3 4.83414 89.9108   4
  -3  10   2 983.929 241.512   4
  -3  10   1 1673.40 328.210   4
  -3  10   0 747.828 233.005   4
  -3  10  -1 75.4019 82.6334   4
  -3  10  -2 5.58634 142.687   4
  -3   9   7 5827.17 589.803   4
  -3   9   6 595.419 190.932   4
  -3   9   5 1466.78 293.495   4
  -3   9   4 73.4967 88.8527   4
  -3   9   3 1121.62 243.912   4
  -3   9   2 173.028 120.843   4
  -3   9   1 4648.00 525.966   4
  -3   9   0 2537.31 402.083   4
  -3   9  -1-19.7781 111.876   4
  -3   9  -2 1297.65 323.438   4
  -3   9  -3 77.7049 116.277   4
  -3   8   8 85.8743 82.3144   3
  -3   8   7 1706.41 293.861   3
  -3   8   6 617.610 190.443   3
  -3   8   6 435.690 159.756   4
  -3   8   5 45.2038 66.8105   4
  -3   8   4 203.687 89.5914   4
  -3   8   3-14.2221 71.6078   4
  -3   8   2 3188.40 396.409   4
  -3   8   1-24.5948 83.4734   4
  -3   8   0 1331.68 272.093   4
  -3   8  -1-3.81376 85.2455   4
  -3   8  -2 2952.87 438.141   4
  -3   8  -3 1314.72 320.527   4
  -3   8  -4-13.8038 140.995   4
  -3   8  -5 431.497 268.183   4
  -3   7   8 1016.53 234.340   3
  -3   7   7 38.5721 57.2856   3
  -3   7   6 2561.60 336.042   3
  -3   7   5 501.693 151.050   3
  -3   7   4 111.345 72.9234   4
  -3   7   3 4409.79 423.137   4
  -3   7   2 4419.68 422.926   4
  -3   7   1 3112.11 359.440   4
  -3   7   0 1506.82 269.563   4
  -3   7  -1 4000.80 449.886   4
  -3   7  -2 560.113 202.497   4
  -3   7  -3 2278.53 391.073   4
  -3   7  -4-52.7206 134.362   4
  -3   7  -5 417.487 204.649   4
  -3   7  -6-288.910 220.806   4
  -3   6   8 452.474 166.556   3
  -3   6   7 610.712 167.796   3
  -3   6   6 891.405 198.175   3
   3  -6  -6 502.037 126.836   1
   3  -6  -5 983.411 213.927   1
  -3   6   5 961.562 184.930   3
  -3   6   4 710.021 161.749   3
  -3   6   3 6279.20 475.461   4
  -3   6   2 2364.60 300.024   4
  -3   6   1 2368.73 299.744   4
  -3   6   0 3670.64 382.402   4
  -3   6  -1 52.2200 94.7074   4
  -3   6  -2 994.304 230.790   4
  -3   6  -3 788.004 215.737   4
  -3   6  -4 333.153 166.417   4
  -3   6  -5 13.3802 84.7072   4
  -3   6  -6 975.185 306.962   4
  -3   6  -7 13.7264 217.007   4
  -3   5   9 219.174 142.586   3
  -3   5   8 3462.33 414.968   3
  -3   5   7 166.866 92.3786   3
   3  -5  -7 161.339 101.752   1
  -3   5   6 124.256 83.4512   3
   3  -5  -6 166.832 98.8001   1
  -3   5   5 663.839 162.535   3
   3  -5  -5 742.169 180.937   1
   3  -5  -4 392.061 124.927   1
   3  -5  -4 262.730 103.830   2
  -3   5   4 306.353 99.6558   3
  -3   5   3 678.567 147.219   3
   3  -5  -3 731.071 164.567   1
  -3   5   3 772.167 165.992   4
   3  -5  -3 792.722 161.980   3
   3  -5  -2 469.450 122.534   3
  -3   5   2 525.653 149.882   4
  -3   5   1 844.066 172.075   4
   3  -5  -1 925.076 158.905   3
   3  -5   0 2867.52 278.246   3
  -3   5   0 2754.24 302.988   4
  -3   5  -1 419.815 142.109   4
   3  -5   1 10.4580 48.4047   4
   3  -5   2 6101.20 460.982   4
  -3   5  -2 5561.32 480.677   4
  -3   5  -3 213.547 123.518   4
  -3   5  -4 5445.96 562.501   4
  -3   5  -5 5751.21 616.015   4
  -3   5  -6 1744.67 354.755   4
  -3   5  -7 198.629 166.657   4
  -3   4   9-201.475 147.349   3
  -3   4   8 57.6251 77.2081   3
  -3   4   7 1847.00 284.442   3
  -3   4   6 419.840 138.101   3
  -3   4   5 1976.00 257.113   3
   3  -4  -5 2230.89 273.398   1
  -3   4   4 273.637 96.4638   3
   3  -4  -4 293.357 107.442   2
   3  -4  -4 455.368 136.127   1
  -3   4   3-52.7529 46.2845   3
   3  -4  -3 11.7275 51.1960   1
   3  -4  -3 36.1300 52.4590   2
   3  -4  -2 2782.82 296.656   1
  -3   4   2 3031.39 281.447   4
   3  -4  -2 3353.65 297.785   3
   3  -4  -1 2419.65 275.281   1
   3  -4  -1 3018.43 269.387   3
   3  -4   0 148.120 72.9404   3
   3  -4   1 34849.5 972.295   4
   3  -4   2 11427.1 590.049   4
  -3   4  -2 11618.0 643.042   4
   3  -4   3 156.869 84.9291   4
  -3   4  -3 190.945 116.528   4
   3  -4   4 20.6428 72.2078   1
  -3   4  -4 25.5204 106.439   4
   3  -4   5 57.8754 71.8891   1
  -3   4  -5 126.889 88.2116   4
  -3   4  -6 9348.67 789.727   4
   3  -4   6 7958.93 626.819   1
  -3   4  -7 7688.05 762.553   4
  -3   4  -8-57.8483 140.560   4
  -3   3   9 454.345 176.681   2
  -3   3   9 328.978 160.224   3
  -3   3   8 70.9191 96.3877   2
  -3   3   8-174.161 118.942   3
  -3   3   7 40.6035 66.2542   3
   3  -3  -6 575.376 118.258   1
  -3   3   6 754.509 184.296   3
  -3   3   5 8319.18 513.948   3
   3  -3  -4 16681.6 786.115   2
   3  -3  -4 17450.5 791.918   3
  -3   3   4 16699.2 673.786   3
   3  -3  -3 1928.03 2474.86   2
   3  -3  -3 1814.55 2390.36   3
   3  -3  -2 251.849 98.4723   2
   3  -3  -2 163.208 69.6808   3
   3  -3  -1 30371.3 793.898   3
   3  -3   0 3466.78 266.461   3
   3  -3   1 1344.85 178.811   4
   3  -3   2 5958.49 390.298   4
   3  -3   2 5249.26 393.250   1
   3  -3   3 21420.6 805.655   4
   3  -3   3 23088.8 870.482   1
  -3   3  -4 12631.2 742.858   4
   3  -3   4 13860.3 677.127   1
   3  -3   4 13621.3 694.738   4
  -3   3  -5 1853.58 311.500   4
   3  -3   5 1802.13 260.281   1
   3  -3   6 52.1450 101.850   1
  -3   3  -6 142.020 125.293   4
  -3   3  -7 224.753 102.664   4
   3  -3   7 101.884 73.6127   1
  -3   3  -8-26.9146 175.538   4
  -3   3  -9 1529.44 371.739   4
   3  -3   9 1585.69 391.290   3
  -3   2   9 110.674 120.830   3
  -3   2   8 97.4318 107.115   2
  -3   2   8 37.7350 67.5188   3
  -3   2   7 4243.22 475.296   2
  -3   2   7 3192.19 386.608   3
   3  -2  -6 1541.71 153.386   1
  -3   2   6 1559.18 266.598   2
  -3   2   6 1739.52 259.393   3
  -3   2   5 4711.77 441.960   2
  -3   2   5 4872.39 397.789   3
   3  -2  -5 4797.57 316.488   1
   3  -2  -4-29.4679 58.6865   3
  -3   2   4 13.5572 55.6319   3
   3  -2  -4-4.27334 46.2063   1
  -3   2   3 199.607 78.0002   3
   3  -2  -3 125.691 63.8852   2
   3  -2  -3 192.636 71.7281   3
   3  -2  -3 173.813 78.8387   1
   3  -2  -2 13612.0 551.070   3
  -3   2   2 12589.7 486.258   3
   3  -2  -2 13858.8 588.323   1
   3  -2  -2 13125.2 583.294   2
  -3   2   1 56367.5 1013.86   4
   3  -2  -1 56283.4 1016.13   3
  -3   2   1 56668.2 982.843   3
   3  -2  -1 56077.0 1187.53   1
   3  -2   0 18772.0 554.148   3
  -3   2   0 18349.6 581.771   4
   3  -2   1 124138. 1541.97   4
  -3   2  -1 128074. 1606.61   4
   3  -2   2 10526.5 477.847   4
   3  -2   2 10463.4 506.385   1
   3  -2   3 2097.51 231.439   1
   3  -2   3 2600.79 260.160   4
   3  -2   4 1980.33 233.076   1
   3  -2   4 2290.38 268.450   4
  -3   2  -5 8591.41 625.067   4
   3  -2   5 8969.25 494.617   1
   3  -2   5 8508.47 575.269   4
  -3   2  -6 5.25903 95.7145   4
   3  -2   6 20.3909 61.7624   1
  -3   2  -7 1608.00 327.517   4
   3  -2   7 1761.99 221.008   1
  -3   2  -8 387.297 190.969   4
   3  -2   9-15.7032 149.439   3
  -3   1   8 3523.31 469.543   2
  -3   1   8 3199.88 419.935   3
  -3   1   7-69.9346 88.8210   2
  -3   1   7 0.76032 81.8795   3
  -3   1   6 560.728 166.241   3
  -3   1   6 168.133 110.099   2
  -3   1   5 455.064 157.498   2
  -3   1   5 311.496 111.292   3
   3  -1  -5 314.868 67.4488   1
  -3   1   4 5338.06 427.057   2
   3  -1  -4 6215.90 482.122   3
  -3   1   4 5915.00 399.044   3
   3  -1  -4 5827.01 326.078   1
   3  -1  -3 3399.34 319.198   3
  -3   1   3 4138.06 299.450   3
  -3   1   3 3933.06 292.237   1
   3  -1  -3 3801.76 277.644   1
   3  -1  -2 2743.81 269.540   2
   3  -1  -2 2889.87 252.989   3
  -3   1   2 2745.29 225.349   3
  -3   1   2 2550.95 234.557   1
   3  -1  -2 3053.86 256.320   1
   3  -1  -1 61586.4 1142.02   2
   3  -1  -1 58480.3 973.337   3
  -3   1   1 58812.3 1123.46   1
  -3   1   1 60118.3 925.610   3
   3  -1  -1 59552.8 1134.17   1
  -3   1   0 77749.6 1278.68   1
  -3   1   0 78668.4 1044.30   4
   3  -1   0 76621.7 1014.17   3
   3  -1   0 78293.2 1297.83   1
  -3   1  -1 18005.3 612.910   1
   3  -1   1 18090.2 508.446   4
  -3   1  -1 17875.6 524.996   4
  -3   1  -2 3421.86 263.534   4
  -3   1  -2 3362.93 264.435   1
   3  -1   2 3216.67 264.694   1
   3  -1   2 3377.82 241.069   4
  -3   1  -3 57723.3 1222.03   4
   3  -1   3 56774.1 1114.56   1
   3  -1   3 54943.2 1113.46   4
   3  -1   4 10274.5 542.698   4
   3  -1   4 10870.0 491.269   1
   3  -1   5 27272.9 782.010   1
   3  -1   5 28918.8 1016.76   4
  -3   1  -5 26436.9 1033.94   4
   3  -1   6 5934.69 356.960   1
   3  -1   6 6765.65 541.384   4
  -3   1  -6 6680.62 563.017   4
   3  -1   7 5045.52 319.407   1
  -3   1  -7 5899.34 580.804   4
   3  -1   8 4180.33 247.424   1
  -3   1  -8 4853.83 566.682   4
   3  -1   9 103.783 136.123   3
   3  -1  10 15.1581 120.356   3
  -3   0   8 677.955 208.338   3
  -3   0   8 505.837 195.393   2
  -3   0   7 1278.82 276.123   2
  -3   0   7 1659.36 295.102   3
  -3   0   6 5127.68 521.628   2
  -3   0   6 4621.38 444.902   3
  -3   0   5 15320.4 825.695   2
  -3   0   5 14594.3 836.420   4
  -3   0   5 14557.5 713.414   3
  -3   0   5 15333.3 563.825   1
  -3   0   4 2582.64 312.606   2
   3   0  -4 2971.81 338.738   3
  -3   0   4 2581.85 275.453   3
  -3   0   4 2885.38 253.693   1
   3   0  -4 2954.54 204.315   1
  -3   0   3 8655.30 5397.00   2
   3   0  -3 6498.84 4490.34   3
  -3   0   3 7778.96 4221.21   3
  -3   0   3 9814.68 4743.77   1
   3   0  -3 7507.87 3495.07   1
   3   0  -2 18775.4 651.729   3
   3   0  -2 18820.8 581.018   1
  -3   0   2 18370.4 560.605   3
  -3   0   2 18900.0 628.923   1
  -3   0   1 213.410 62.6080   3
  -3   0   1 220.477 85.8805   1
   3   0  -1 178.055 66.2886   2
   3   0  -1 214.623 71.8434   1
   3   0  -1 170.181 58.5703   3
   3   0   0 10301.7 425.304   2
   3   0   0 10117.8 335.448   3
   3   0   0 11156.6 464.616   1
  -3   0   0 11673.1 486.601   1
  -3   0   0 10311.5 332.224   4
  -3   0  -1 60504.9 1079.34   1
  -3   0  -1 59790.2 817.192   4
   3   0   1 59965.7 787.747   4
  -3   0  -2 3055.32 213.324   4
  -3   0  -2 3226.61 253.305   1
   3   0   2 3403.97 259.083   1
   3   0   2 3343.79 210.400   4
   3   0   3 18738.4 590.633   4
  -3   0  -3 19610.6 656.293   4
  -3   0  -3 18478.5 595.993   1
   3   0   3 18712.7 602.554   1
   3   0   4-5.01168 44.5868   4
   3   0   4-36.3942 42.0910   1
  -3   0  -4-54.6713 79.7604   4
  -3   0  -4 10.4965 50.6355   1
  -3   0  -5 2818.62 232.871   1
   3   0   5 3196.54 244.475   1
   3   0   5 3253.44 335.935   4
  -3   0  -5 3350.11 348.155   4
   3   0   6 15110.2 800.720   4
   3   0   6 14414.7 506.770   1
  -3   0  -6 14498.2 793.836   4
   3   0   7 805.300 112.274   1
  -3   0  -7 805.617 205.469   4
   3   0   8 6615.32 624.230   3
   3   0   8 6508.66 255.115   1
   3   0   9 1494.12 338.282   3
   3   0  10 382.508 208.933   3
  -3  -1   8 147.566 116.170   3
  -3  -1   7 958.955 260.287   2
  -3  -1   7 825.273 218.671   3
  -3  -1   6 3276.21 431.078   2
  -3  -1   6 2903.19 356.022   3
  -3  -1   5 19618.4 970.001   2
  -3  -1   5 18555.6 830.989   3
  -3  -1   5 20191.9 654.089   1
  -3  -1   4 1700.57 262.767   2
  -3  -1   4 1556.39 251.437   4
  -3  -1   4 1521.68 186.312   1
  -3  -1   4 1509.27 217.873   3
   3   1  -3 3245.30 214.426   1
  -3  -1   3 3183.52 333.468   2
   3   1  -3 3762.28 346.171   3
  -3  -1   3 3718.39 298.018   3
  -3  -1   3 3158.19 264.763   1
  -3  -1   3 3443.44 331.464   4
  -3  -1   2 107.485 68.5657   1
   3   1  -2 165.537 56.4404   1
  -3  -1   2 143.966 69.0803   2
   3   1  -2 234.460 71.5237   3
  -3  -1   2 144.992 61.6851   3
  -3  -1   1 1974.13 212.979   2
   3   1  -1 2174.10 189.711   3
  -3  -1   1 2039.65 160.524   3
  -3  -1   1 1575.35 183.975   1
   3   1  -1 1884.20 175.130   1
   3   1   0 7265.20 367.175   2
   3   1   0 7434.68 352.164   1
  -3  -1   0 7458.05 385.841   1
   3   1   0 7251.01 274.090   3
  -3  -1   0 7396.17 250.418   3
  -3  -1   0 7660.51 362.783   2
  -3  -1  -1 12156.5 485.370   1
   3   1   1 12249.1 407.172   2
   3   1   1 12391.4 288.428   3
  -3  -1  -1 12660.7 293.072   4
   3   1   1 12337.4 459.313   1
   3   1   2 4905.35 210.486   4
  -3  -1  -2 4920.97 307.550   1
  -3  -1  -2 4867.73 232.116   4
  -3  -1  -3 390.511 94.2976   1
   3   1   3 526.036 93.9896   4
  -3  -1  -3 492.981 101.708   4
   3   1   3 414.070 92.3811   1
  -3  -1  -4 8832.03 404.595   1
   3   1   4 8524.02 443.782   4
   3   1   4 8454.91 379.184   1
  -3  -1  -4 8903.56 464.130   4
  -3  -1  -5 75048.8 1163.63   1
   3   1   5 75520.5 1534.55   4
  -3  -1  -5 73751.4 1520.10   4
   3   1   6 299.368 121.667   4
   3   1   6 100.731 42.4770   1
  -3  -1  -6 149.227 132.741   4
  -3  -1  -6 114.510 52.1422   1
   3   1   7 3968.36 217.613   1
   3   1   7 4598.12 455.574   3
   3   1   7 4878.14 490.575   4
   3   1   8 3583.21 173.354   1
   3   1   8 7533.61 634.252   3
   3   1   9 27.3844 81.4990   3
   3   1  10 330.058 177.273   3
   3   1  11 170.999 135.944   3
  -3  -2   8 127.871 107.484   3
  -3  -2   7-546.298 216.141   2
  -3  -2   7-60.6943 92.3970   3
  -3  -2   6 174.400 126.262   2
  -3  -2   6 423.760 151.191   3
  -3  -2   5 2938.97 404.598   2
  -3  -2   5 3491.10 287.615   1
  -3  -2   5 3516.12 373.356   3
  -3  -2   4 81.5309 56.1572   3
  -3  -2   4 178.798 110.236   4
  -3  -2   4-85.5496 104.810   2
  -3  -2   4 76.8152 54.8141   1
  -3  -2   3 23408.8 748.171   1
  -3  -2   3 23345.0 929.517   2
  -3  -2   3 22691.1 867.150   4
  -3  -2   3 22397.5 765.294   3
  -3  -2   2 24761.4 869.353   2
  -3  -2   2 23197.3 666.551   3
  -3  -2   2 24331.0 734.267   1
  -3  -2   2 23542.0 764.505   4
  -3  -2   1 303.024 81.3413   4
  -3  -2   1 472.588 107.467   2
   3   2  -1 221.521 65.1346   1
  -3  -2   1 287.737 63.7487   3
   3   2   0 57970.0 939.472   1
  -3  -2   0 57668.5 1043.14   2
   3   2   0 55629.5 770.911   3
  -3  -2   0 56259.4 631.523   3
  -3  -2   0 55546.7 716.107   4
  -3  -2   0 57546.6 1070.52   1
  -3  -2  -1 742.215 124.508   1
   3   2   1 868.199 64.7347   3
  -3  -2  -1 782.896 110.985   2
   3   2   2 7730.11 185.892   4
   3   2   2 7740.12 281.540   2
  -3  -2  -2 7840.45 386.351   1
  -3  -2  -2 7753.84 214.712   4
   3   2   3 21056.2 569.205   1
   3   2   3 20310.1 498.763   4
  -3  -2  -3 20882.5 621.931   1
  -3  -2  -3 20091.7 511.316   4
   3   2   4 975.936 122.823   1
   3   2   4 697.488 127.299   4
  -3  -2  -4 907.779 143.420   4
  -3  -2  -4 877.961 131.876   1
   3   2   5 11580.6 405.514   1
  -3  -2  -5 11964.9 476.189   1
   3   2   5 11706.1 583.939   4
   3   2   6 417.724 126.703   4
   3   2   6 526.797 138.164   3
   3   2   6 610.792 88.9654   1
  -3  -2  -6 443.894 98.2479   1
   3   2   7 4117.00 412.672   3
  -3  -2  -7 3940.57 263.898   1
   3   2   7 4131.18 433.949   4
  -3  -2  -8 304.016 78.4969   1
   3   2   8 510.436 172.136   3
   3   2   9 1761.23 320.654   3
   3   2  10 149.011 99.1746   3
   3   2  11 1253.58 310.600   3
  -3  -3   7 13.0948 87.9479   3
  -3  -3   6 1111.04 288.654   2
  -3  -3   6 705.369 193.522   3
  -3  -3   5-75.5115 67.5381   1
  -3  -3   5 19.5485 71.9268   3
  -3  -3   5-91.5310 124.491   2
  -3  -3   4 11336.4 700.536   4
  -3  -3   4 11434.3 623.003   3
  -3  -3   4 12375.0 581.618   1
  -3  -3   3 1068.59 198.570   4
  -3  -3   3 1243.70 188.304   1
  -3  -3   3 1154.53 183.670   3
  -3  -3   2 2492.34 253.804   4
  -3  -3   2 2289.88 219.518   3
  -3  -3   2 2560.03 249.590   1
  -3  -3   1 389.736 89.9219   1
  -3  -3   1 542.284 103.315   4
  -3  -3   1 448.513 86.0249   3
  -3  -3   0 5427.69 198.215   3
  -3  -3   0 4958.04 327.414   2
  -3  -3   0 5317.62 212.385   4
  -3  -3   0 5656.47 338.723   1
  -3  -3  -1 2118.59 185.645   2
  -3  -3  -1 2473.29 219.917   1
  -3  -3  -2 51.5910 50.7741   1
   3   3   3 36969.4 5357.57   3
   3   3   3 36372.0 6018.12   4
  -3  -3  -3 38059.4 8436.71   1
   3   3   4 5650.39 287.539   1
  -3  -3  -4 5870.94 332.016   1
   3   3   4 5843.99 297.596   3
   3   3   4 5883.23 332.837   4
   3   3   5 11694.7 511.771   3
   3   3   5 12032.8 571.214   4
  -3  -3  -5 11964.3 483.821   1
  -3  -3  -6 9613.29 441.021   1
   3   3   6 8151.08 547.733   4
  -3  -3  -7 217.949 76.6116   1
   3   3   7 22.8105 66.1246   4
   3   3   7 51.6915 74.6569   3
   3   3   8 836.485 200.076   3
  -3  -3  -8 984.907 138.368   1
   3   3   9 3047.80 406.022   3
  -3  -3  -9 2240.99 179.610   1
   3   3  10-187.440 129.477   3
   3   3  11 83.0185 121.262   3
   3   3  13 368.523 190.838   2
  -3  -4   6 716.870 258.387   2
  -3  -4   6 866.128 215.480   3
  -3  -4   5 898.168 207.237   3
  -3  -4   4 563.942 180.491   4
  -3  -4   4 694.571 173.092   3
  -3  -4   4 855.741 170.235   1
  -3  -4   3 305.652 103.586   1
  -3  -4   3 291.112 106.759   3
  -3  -4   3 518.577 137.768   4
  -3  -4   2 5326.78 358.478   3
  -3  -4   2 5146.22 362.852   4
  -3  -4   2 5634.98 386.067   1
  -3  -4   1 5809.70 376.989   1
  -3  -4   1 5911.42 314.569   3
  -3  -4   1 5954.16 320.757   4
  -3  -4   0 3868.56 298.534   1
  -3  -4   0 3665.44 186.887   3
  -3  -4   0 4177.76 193.307   4
  -3  -4  -1 5722.70 349.115   1
  -3  -4  -2 24107.9 542.945   2
  -3  -4  -2 24439.3 707.314   1
  -3  -4  -3 15039.2 552.156   1
   3   4   3 14933.7 219.864   3
   3   4   3 14835.5 373.779   4
  -3  -4  -4 40977.9 903.009   1
   3   4   4 40276.0 663.421   3
   3   4   4 40295.0 841.741   4
  -3  -4  -5 12351.7 499.572   1
   3   4   5 12533.4 477.982   3
   3   4   5 11837.4 552.194   4
  -3  -4  -6 6.72142 53.3477   1
   3   4   6 26.4587 48.4874   4
   3   4   7 998.460 206.430   4
   3   4   7 846.551 177.583   3
  -3  -4  -7 824.659 136.033   1
   3   4   8 23665.7 969.084   3
  -3  -4  -8 25053.7 733.029   1
  -3  -4  -9 2309.08 215.310   1
   3   4   9 2437.53 340.077   3
   3   4  10 86.8611 80.8095   3
  -3  -4 -10 3.72623 26.1295   1
   3   4  11 323.605 119.009   2
   3   4  11 510.165 174.681   3
   3   4  12 1329.81 282.278   2
   3   4  12 1335.16 334.066   3
  -3  -5   5 198.668 114.233   3
  -3  -5   4 594.935 151.254   1
  -3  -5   4 741.347 173.880   3
  -3  -5   3 606.503 157.037   3
  -3  -5   3 700.355 156.268   4
  -3  -5   2 983.990 163.082   4
  -3  -5   2 869.198 168.805   1
  -3  -5   2 898.100 159.384   3
  -3  -5   1 17388.0 695.012   1
  -3  -5   1 17381.1 563.611   4
  -3  -5   1 16379.2 561.258   3
  -3  -5   0 598.565 84.2697   4
  -3  -5   0 522.796 131.736   1
  -3  -5   0 367.894 68.6658   3
   3   5   1 467.449 75.9477   4
  -3  -5  -1 423.889 47.5528   3
  -3  -5  -1 452.529 40.9145   3
  -3  -5  -1 448.317 98.4465   1
  -3  -5  -2 1758.99 205.526   1
   3   5   2 1782.38 115.646   4
  -3  -5  -3 22935.0 715.357   1
   3   5   3 23551.0 414.553   4
  -3  -5  -3 22384.0 429.694   2
  -3  -5  -4 9465.71 456.342   1
   3   5   4 8895.18 263.550   3
  -3  -5  -5 3421.35 278.837   1
   3   5   5 3332.13 220.141   3
  -3  -5  -6 4975.30 333.273   1
   3   5   6 5421.88 430.388   4
   3   5   7 10565.6 549.667   3
   3   5   7 10269.5 665.799   4
  -3  -5  -7 10457.6 488.351   1
   3   5   8 11297.5 402.526   2
  -3  -5  -8 10871.9 506.157   1
   3   5   8 10804.3 623.127   3
   3   5   8 10930.4 757.966   4
   3   5   9 13025.7 751.315   3
  -3  -5  -9 12494.1 549.842   1
  -3  -5 -10 215.681 75.8137   1
   3   5  10 188.116 77.9359   2
   3   5  10 164.582 88.6683   3
   3   5  11 2308.35 297.165   2
   3   5  11 2831.70 410.471   3
   3   5  12 43.7468 106.905   3
  -3  -6   3 1401.36 231.404   1
  -3  -6   3 1151.91 208.322   3
  -3  -6   2 3251.10 334.756   1
  -3  -6   2 3339.08 310.334   3
  -3  -6   1 25749.9 899.203   1
  -3  -6   1 24876.9 700.801   4
  -3  -6   1 25301.3 751.170   3
  -3  -6   0 4386.89 359.789   1
  -3  -6   0 4687.37 274.506   3
  -3  -6   0 4591.53 255.292   4
   3   6   0 4907.74 321.251   4
  -3  -6  -1 2270.43 246.471   1
  -3  -6  -1 2205.98 149.099   3
  -3  -6  -1 2538.31 126.123   3
   3   6   1 2358.07 195.065   4
   3   6   2 1173.61 123.527   4
  -3  -6  -2 1196.27 71.6556   3
  -3  -6  -2 1307.33 191.809   1
  -3  -6  -3 1896.91 226.983   1
  -3  -6  -3 1673.01 111.006   3
   3   6   3 1653.60 136.182   4
   3   6   4 366.011 71.1385   4
  -3  -6  -4 563.288 123.887   1
  -3  -6  -4 385.530 73.3798   3
  -3  -6  -5 2634.87 259.655   1
  -3  -6  -5 2140.00 211.413   3
   3   6   5 2579.46 179.482   3
  -3  -6  -6 18269.8 680.591   1
  -3  -6  -7 2138.52 238.162   1
   3   6   7 1872.13 223.902   3
  -3  -6  -8 2381.20 251.925   1
   3   6   8 2827.91 384.171   4
   3   6   8 2209.29 268.092   3
  -3  -6  -9 1631.21 212.308   1
   3   6   9 1950.12 288.104   3
  -3  -6 -10 909.212 156.404   1
   3   6  10 885.276 214.512   3
   3   6  11 405.736 169.626   3
   3   6  12 2483.84 403.968   3
  -3  -7   3 79.5079 58.6247   1
  -3  -7   2 23.7513 66.7003   1
  -3  -7   1 3257.95 342.929   1
  -3  -7   1 3217.70 286.516   3
   3   7   0 1043.16 173.030   4
  -3  -7   0 1231.41 159.974   3
  -3  -7   0 1196.32 141.382   4
  -3  -7   0 976.070 183.045   1
  -3  -7  -1 7585.30 492.389   1
  -3  -7  -1 8178.87 336.499   3
  -3  -7  -1 8293.64 266.135   3
   3   7   1 7891.20 413.297   4
  -3  -7  -2 61921.2 1362.22   1
  -3  -7  -2 60383.0 663.265   3
   3   7   2 62149.8 1061.85   4
  -3  -7  -3 1887.79 238.718   1
  -3  -7  -3 1785.78 130.249   3
   3   7   3 1801.48 168.863   4
  -3  -7  -4 2964.41 159.281   2
  -3  -7  -4 2648.42 280.265   1
   3   7   4 3299.62 226.863   4
  -3  -7  -4 3343.19 217.452   3
  -3  -7  -5 434.882 96.3980   3
  -3  -7  -5 457.699 118.356   1
  -3  -7  -6 5796.43 413.758   1
  -3  -7  -6 5364.54 387.984   3
  -3  -7  -7 15967.9 679.642   1
  -3  -7  -7 14422.5 713.970   3
   3   7   7 15072.0 586.669   3
  -3  -7  -8 3996.41 341.448   1
   3   7   8 3527.71 320.429   3
  -3  -7  -9 68.2389 53.5724   1
   3   7   9 296.555 117.754   3
  -3  -7 -10 1331.31 201.333   1
   3   7  10 1464.24 259.129   3
   3   7  11 311.080 136.833   3
   3   7  12 508.757 190.660   3
  -3  -8   2 681.732 180.557   1
  -3  -8   1 1229.05 234.032   1
  -3  -8   0 2414.51 308.149   1
   3   8   1 318.229 105.250   4
  -3  -8  -1 455.833 137.666   1
  -3  -8  -2 638.194 164.840   1
   3   8   2 593.709 129.528   4
  -3  -8  -2 440.572 66.3607   3
  -3  -8  -3 26958.7 948.376   1
  -3  -8  -3 27609.9 563.130   3
   3   8   3 26222.9 734.484   4
   3   8   4 3501.97 257.040   4
  -3  -8  -4 3576.49 235.382   3
  -3  -8  -5 267.910 109.735   1
  -3  -8  -5 277.050 78.3209   3
  -3  -8  -6 3845.80 357.805   1
  -3  -8  -6 3737.36 329.946   3
  -3  -8  -7 10900.5 601.010   1
  -3  -8  -7 9512.72 591.586   3
   3   8   7 10165.3 472.556   3
   3   8   8 1024.83 172.378   3
  -3  -8  -8 989.207 226.986   3
  -3  -8  -8 1030.72 201.887   1
  -3  -8  -9 435.843 131.959   1
   3   8   9 173.389 83.2553   3
  -3  -8 -10 451.187 129.059   1
   3   8  10 524.870 150.262   3
   3   8  11-112.356 95.5197   3
   3   8  12 1042.11 256.491   3
  -3  -9   2 474.270 164.980   1
  -3  -9   1 111.538 71.6384   1
  -3  -9   0 574.593 152.442   1
  -3  -9  -1 1150.37 229.936   1
  -3  -9  -2 3068.81 357.117   1
  -3  -9  -3 214.644 105.216   1
  -3  -9  -4 4220.06 404.158   1
  -3  -9  -5 3129.02 345.794   1
   3   9   5 2387.34 242.130   4
  -3  -9  -6 1716.93 253.724   1
   3   9   6 1291.31 185.058   4
  -3  -9  -7 1193.35 223.749   1
   3   9   8 873.089 153.905   3
  -3  -9  -8 956.810 188.386   1
   3   9   9 390.471 123.803   3
  -3  -9  -9 404.861 135.186   1
  -3  -9 -10 1333.42 238.772   1
   3   9  10 1300.31 234.414   3
  -3  -9 -11-44.1310 91.0251   1
   3   9  11 196.143 126.742   3
   3   9  12-18.3467 74.3142   3
  -3 -10   0 138.770 89.4104   1
  -3 -10  -1 547.787 176.674   1
  -3 -10  -2 21.8987 69.1151   1
  -3 -10  -3 679.642 177.207   1
   3  10   4 100.111 46.8341   4
  -3 -10  -4 129.542 94.7304   1
   3  10   5 161.341 70.6582   4
  -3 -10  -5 270.658 116.546   1
   3  10   6 798.741 160.209   4
  -3 -10  -6 710.321 178.134   1
  -3 -10  -7 2317.29 315.634   1
   3  10   7 2202.25 273.820   4
  -3 -10  -8-22.5566 88.9023   1
   3  10   8 58.0259 68.5509   4
   3  10   9 29.1438 61.7043   3
  -3 -10  -9-75.7179 96.4487   1
   3  10  10 9.51814 52.0357   3
  -3 -10 -10 225.307 109.234   1
   3  10  11 187.292 129.905   3
  -3 -10 -11 14.0610 66.8400   1
   3  10  12-0.85174 119.276   3
  -3 -11  -3 107.854 95.7145   1
  -3 -11  -4 320.244 127.147   1
  -3 -11  -5 748.959 191.438   1
  -3 -11  -6 1869.41 300.639   1
  -3 -11  -7 453.106 160.300   1
   3  11   7 328.965 114.798   4
  -3 -11  -8 706.091 197.043   1
   3  11   8 856.802 189.276   4
  -3 -11  -9-54.0228 66.8816   1
   3  11   9 118.662 107.658   4
  -3 -11 -10 1039.90 239.874   1
  -3 -11 -11-17.6552 85.9378   1
  -4  10   4 11.7249 132.056   4
  -4  10   3 407.360 155.620   4
  -4  10   2 1674.13 358.377   4
  -4  10   1-57.6852 123.916   4
  -4  10   0 38.3153 107.486   4
  -4   9   6 1341.06 299.608   4
  -4   9   5 1240.57 287.589   4
  -4   9   4 359.333 165.066   4
  -4   9   3 138.560 117.335   4
  -4   9   2 832.586 239.684   4
  -4   9   1-74.2643 92.4429   4
  -4   9   0 106.233 155.839   4
  -4   9  -1 1508.29 336.287   4
  -4   9  -2 267.593 152.652   4
  -4   8   6-286.966 144.032   4
  -4   8   5 1445.75 295.218   4
  -4   8   4 654.318 210.273   4
  -4   8   3 650.084 194.330   4
  -4   8   2 2220.73 337.673   4
  -4   8   1 83.3970 107.771   4
  -4   8   0 724.469 223.155   4
  -4   8  -1 3352.98 464.846   4
  -4   8  -2 43.4432 97.6160   4
  -4   8  -3 339.732 205.365   4
  -4   8  -4 543.848 237.431   4
  -4   7   7 204.909 139.568   3
  -4   7   6 541.386 181.774   3
  -4   7   5 837.296 211.118   4
  -4   7   4 1615.91 281.882   4
  -4   7   3 955.096 222.928   4
  -4   7   2 3280.80 402.362   4
  -4   7   1 355.572 137.248   4
  -4   7   0 961.673 231.434   4
  -4   7  -1 2122.70 344.986   4
  -4   7  -2 80.7287 109.041   4
  -4   7  -3 427.070 183.017   4
  -4   7  -4-47.4708 158.195   4
  -4   7  -5-330.777 187.089   4
  -4   6   7 1259.32 257.767   3
  -4   6   6 79.1425 80.1892   3
  -4   6   5 201.971 102.951   3
  -4   6   4 347.548 132.399   4
  -4   6   3 508.370 151.655   4
  -4   6   2 903.776 209.350   4
  -4   6   1 258.308 120.206   4
  -4   6   0 3634.92 402.288   4
  -4   6  -1 633.937 182.223   4
  -4   6  -2 7049.82 608.836   4
  -4   6  -3 7.84193 111.456   4
  -4   6  -4 1214.65 295.513   4
  -4   6  -5 3063.90 495.321   4
  -4   6  -6 613.137 246.708   4
  -4   5   8 319.087 153.155   3
  -4   5   7 96.4042 109.198   3
  -4   5   6 718.250 185.521   3
  -4   5   5 46.6716 62.8841   3
  -4   5   4 258.157 114.191   3
  -4   5   3-106.099 88.7078   4
  -4   5   2 1041.23 194.843   4
  -4   5   1 615.460 149.321   4
  -4   5   0 451.816 143.087   4
  -4   5  -1 1919.11 284.876   4
  -4   5  -2 353.316 123.977   4
  -4   5  -3 1013.26 223.027   4
  -4   5  -4 344.482 161.974   4
  -4   5  -5 3937.56 528.268   4
  -4   5  -6 132.678 157.059   4
  -4   5  -7 1179.93 331.367   4
  -4   4   8 222.234 120.530   3
  -4   4   7 769.604 201.605   3
  -4   4   6 130.845 93.7607   3
   4  -4  -6 29.3611 85.1374   1
  -4   4   5 1714.39 259.895   3
   4  -4  -5 1741.24 276.018   1
  -4   4   4 6501.67 460.849   3
   4  -4  -4 6781.90 534.036   1
   4  -4  -3 2338.02 308.992   1
  -4   4   3 2261.57 267.078   3
   4  -4  -2 2660.06 287.154   3
   4  -4  -2 2298.41 303.867   1
  -4   4   2 2103.04 256.546   4
   4  -4  -1 2755.52 281.798   3
   4  -4  -1 2726.64 320.034   1
  -4   4   1 2819.21 295.948   4
  -4   4   0 321.720 121.894   4
   4  -4   0 159.786 65.7258   3
   4  -4   0 206.430 110.525   1
  -4   4  -1 898.479 187.132   4
   4  -4   1 603.669 163.662   1
   4  -4   1 712.751 146.229   4
  -4   4  -2 433.825 130.748   4
   4  -4   2 352.479 149.290   1
   4  -4   2 274.157 101.322   4
   4  -4   3 114.817 76.2538   1
  -4   4  -3 231.157 126.871   4
   4  -4   4 2299.06 345.313   1
  -4   4  -4 3093.52 423.676   4
  -4   4  -5 2298.87 392.361   4
   4  -4   5 2136.48 364.932   1
  -4   4  -6 1843.83 356.551   4
  -4   4  -7-142.207 169.007   4
  -4   4  -8-232.155 171.602   4
  -4   3   8 1532.42 300.356   3
  -4   3   7 515.164 173.488   3
  -4   3   6 6.73388 72.8563   3
   4  -3  -6 18.8646 48.0072   1
  -4   3   5 400.665 126.066   3
   4  -3  -5 266.966 92.0846   1
   4  -3  -4 122.952 103.462   1
  -4   3   4 49.6167 78.4782   3
  -4   3   3 1105.09 183.099   3
   4  -3  -3 1048.83 205.325   1
   4  -3  -3 1332.47 219.952   3
   4  -3  -2 2910.52 309.083   2
   4  -3  -2 2898.29 292.668   3
  -4   3   2 2519.87 262.226   3
   4  -3  -2 2799.62 324.205   1
   4  -3  -1 4974.52 354.701   3
   4  -3  -1 4630.65 404.947   1
  -4   3   1 4866.34 357.100   4
  -4   3   0 11772.7 558.335   4
   4  -3   0 11942.4 532.879   3
  -4   3  -1 280.873 93.5596   4
   4  -3   1 567.166 122.218   4
   4  -3   2 20894.5 862.239   1
   4  -3   2 22749.3 803.009   4
  -4   3  -2 21864.8 852.633   4
  -4   3  -3 16509.0 794.521   4
   4  -3   3 17358.1 796.464   1
   4  -3   3 18232.4 760.457   4
   4  -3   4-3.00946 49.0589   4
  -4   3  -4-29.1751 81.0530   4
   4  -3   4-53.6361 94.0021   1
  -4   3  -5 97.7162 129.464   4
   4  -3   5 429.385 147.329   1
   4  -3   6 7119.28 543.640   1
  -4   3  -6 7795.24 697.228   4
  -4   3  -7 392.506 179.872   4
   4  -3   7 98.2664 80.9051   1
  -4   3  -8 129.071 115.144   4
  -4   3  -9 353.776 217.900   4
  -4   2   8 102.837 87.5169   3
  -4   2   7 3650.98 418.221   3
  -4   2   6 2524.35 320.948   3
  -4   2   5 3865.78 372.749   3
  -4   2   4 28.2006 78.6702   3
   4  -2  -4 200.010 89.4277   1
  -4   2   3 684.388 141.575   3
   4  -2  -3 390.230 118.025   1
   4  -2  -3 595.676 146.956   3
   4  -2  -2 2380.51 280.973   2
   4  -2  -2 2749.45 277.861   3
  -4   2   2 2496.29 240.008   3
   4  -2  -2 2441.09 288.901   1
   4  -2  -1 12973.1 607.939   2
   4  -2  -1 12140.7 528.283   3
   4  -2  -1 13606.2 668.623   1
  -4   2   1 12158.7 524.654   4
  -4   2   0 47230.0 1020.62   4
   4  -2   0 49818.4 999.381   3
  -4   2  -1 173492. 2025.68   4
   4  -2   1 177859. 1980.21   4
  -4   2  -2 22119.0 773.139   4
   4  -2   2 22272.6 732.571   4
   4  -2   3 110.957 59.8786   4
  -4   2  -3 143.300 96.8197   4
   4  -2   3 71.8995 85.5517   1
  -4   2  -4 465.937 158.828   4
   4  -2   4 483.712 125.723   4
   4  -2   4 661.342 159.190   1
   4  -2   5 14508.2 751.927   4
   4  -2   5 12886.5 665.690   1
  -4   2  -5 13282.4 799.914   4
  -4   2  -6 327.715 155.359   4
   4  -2   6 383.874 128.052   1
  -4   2  -7-146.730 142.347   4
   4  -2   7 107.653 101.866   1
  -4   2  -8 4291.90 558.796   4
  -4   2  -9 83.2176 135.274   4
  -4   1   8 111.613 69.7815   3
  -4   1   7-1.03080 123.062   2
  -4   1   7 193.031 98.2177   3
  -4   1   6 349.614 149.152   2
  -4   1   6 377.185 128.735   3
  -4   1   5 2790.59 368.757   2
  -4   1   5 2240.88 289.177   3
  -4   1   4 291.078 108.657   1
  -4   1   4 36.3341 109.713   2
  -4   1   4 291.530 93.4896   3
  -4   1   3 546.396 135.152   1
   4  -1  -3 595.135 148.298   3
  -4   1   3 542.967 115.901   3
  -4   1   2 220.175 67.7885   3
   4  -1  -2 485.600 139.684   2
  -4   1   2 254.260 89.6183   1
   4  -1  -2 423.992 108.308   3
  -4   1   1 688.825 129.659   3
  -4   1   1 886.794 168.925   1
   4  -1  -1 1011.71 170.863   2
   4  -1  -1 1004.80 147.116   3
   4  -1   0 124923. 1474.99   3
  -4   1   0 121182. 1847.88   1
  -4   1   0 123934. 1490.98   4
  -4   1  -1 12451.6 484.872   4
  -4   1  -1 12209.3 586.934   1
   4  -1   1 13067.9 466.095   3
  -4   1  -2-23.4890 66.4341   4
  -4   1  -2-23.6469 52.4683   1
   4  -1   2 26.6745 35.0599   4
  -4   1  -3 3355.20 305.855   4
  -4   1  -3 3328.68 301.098   1
   4  -1   3 3541.37 320.455   1
   4  -1   3 3429.54 282.897   4
  -4   1  -4 6309.55 416.051   1
   4  -1   4 5461.74 395.913   1
   4  -1   4 6122.11 417.646   4
  -4   1  -4 5412.98 445.502   4
   4  -1   5 829.731 175.977   4
  -4   1  -5 1103.27 222.331   4
   4  -1   5 1134.03 188.012   1
   4  -1   6 20955.7 784.943   1
  -4   1  -6 22059.8 1045.35   4
   4  -1   7 10500.6 550.914   1
  -4   1  -7 9829.41 748.896   4
  -4   1  -8 1892.51 366.377   4
   4  -1   8 1624.13 206.607   1
  -4   1  -9 199.049 125.506   4
   4  -1  10 387.682 201.517   3
  -4   0   8 634.897 217.214   3
  -4   0   7 3539.56 485.599   2
  -4   0   7 3799.17 431.570   3
  -4   0   6 498.935 186.283   2
  -4   0   6 207.618 110.347   3
  -4   0   5 4004.68 448.554   2
  -4   0   5 3652.91 361.154   3
  -4   0   5 4000.16 341.131   1
  -4   0   4 30259.0 1145.36   2
   4   0  -4 29958.9 1153.77   3
  -4   0   4 29044.6 931.365   3
  -4   0   4 31187.8 966.283   1
  -4   0   3 6533.95 495.096   2
   4   0  -3 6584.64 482.055   3
  -4   0   3 7210.39 420.213   3
  -4   0   3 6264.96 434.148   1
  -4   0   2 12046.9 613.621   2
   4   0  -2 12452.7 583.573   3
  -4   0   2 12455.1 496.642   3
  -4   0   2 11298.9 566.060   1
   4   0  -1 4825.24 376.831   2
   4   0  -1 4905.28 318.218   3
  -4   0   1 4621.22 278.658   3
  -4   0   1 4312.71 348.091   1
   4   0   0 6095.24 385.037   2
   4   0   0 5287.17 284.979   3
  -4   0   0 6580.64 425.750   1
  -4   0   0 6012.42 294.047   4
   4   0   1 2846.36 197.382   3
  -4   0  -1 2974.87 286.362   1
  -4   0  -1 3130.85 211.195   4
  -4   0  -2 36.8416 48.2234   4
  -4   0  -2 59.4700 64.3054   1
   4   0   2 41.3013 33.5100   4
  -4   0  -3 3197.98 289.832   1
   4   0   3 4134.67 329.090   1
  -4   0  -3 3431.61 282.958   4
   4   0   3 3605.38 263.469   4
   4   0   4 157.457 68.0599   4
  -4   0  -4 309.822 117.390   4
   4   0   4 298.311 102.645   1
  -4   0  -4 341.107 107.286   1
   4   0   5 8302.20 466.654   1
  -4   0  -5 8112.30 461.836   1
   4   0   5 8507.24 524.718   4
  -4   0  -5 7945.38 544.301   4
   4   0   6 33.9834 61.7828   4
  -4   0  -6 73.6987 70.8812   1
  -4   0  -6 153.562 130.329   4
   4   0   6 161.889 80.0043   1
   4   0   7 3872.07 308.478   1
  -4   0  -7 3746.44 445.678   4
  -4   0  -8 600.152 194.607   4
   4   0   8 294.533 93.5390   1
   4   0   9-28.5602 113.678   3
   4   0  10 318.270 165.888   3
  -4  -1   7 748.651 206.967   3
  -4  -1   6 579.879 199.335   2
  -4  -1   6 650.445 183.584   3
  -4  -1   5 29.2752 72.5050   2
  -4  -1   5-34.7492 67.2650   1
  -4  -1   5 10.3128 73.9537   3
  -4  -1   4 1287.04 242.044   4
  -4  -1   4 1312.33 246.575   2
  -4  -1   4 1518.90 214.785   1
  -4  -1   4 1550.69 223.674   3
  -4  -1   3 2581.71 329.054   2
   4   1  -3 2751.01 312.494   3
  -4  -1   3 3244.49 282.930   3
  -4  -1   3 2632.29 305.478   4
  -4  -1   3 2938.34 299.390   1
  -4  -1   2 371.285 109.042   2
   4   1  -2 331.934 99.0589   3
  -4  -1   2 361.550 110.914   1
  -4  -1   2 284.476 84.5447   3
   4   1  -1 35460.9 854.262   3
  -4  -1   1 36616.5 729.495   3
  -4  -1   1 34368.3 982.772   1
  -4  -1   0 5313.66 242.198   4
   4   1   0 5904.55 386.176   2
   4   1   0 5050.74 271.475   3
  -4  -1   0 5822.64 262.838   3
  -4  -1   0 5894.12 397.781   1
   4   1   1 13486.7 516.363   2
   4   1   1 11648.1 348.363   3
  -4  -1  -1 12715.0 580.046   1
  -4  -1  -1 12415.1 358.893   4
  -4  -1  -2 808.339 152.562   1
   4   1   2 808.824 94.3283   4
  -4  -1  -2 841.174 110.218   4
  -4  -1  -3 11700.6 554.234   1
   4   1   3 11846.3 418.069   4
  -4  -1  -3 12102.2 478.055   4
  -4  -1  -4 2091.27 231.460   1
   4   1   4 2260.49 221.701   4
   4   1   4 2368.74 236.773   1
  -4  -1  -4 2300.08 247.872   4
   4   1   5 6437.27 389.434   1
  -4  -1  -5 6316.06 398.922   1
   4   1   5 6582.99 438.801   4
  -4  -1  -5 7015.67 479.533   4
   4   1   6 118.251 60.7398   4
  -4  -1  -6-65.6642 68.4887   4
  -4  -1  -6-11.1712 60.7425   1
   4   1   6 97.0713 62.0285   1
  -4  -1  -7 4261.01 449.274   4
  -4  -1  -7 3321.40 296.345   1
   4   1   7 4062.98 437.098   4
   4   1   7 3912.43 287.421   1
   4   1   8 354.272 169.588   3
   4   1   8 232.945 69.4726   1
   4   1   9 534.720 209.918   3
   4   1  10-1.18257 91.9407   3
   4   1  11 486.793 195.022   3
  -4  -2   7-87.2377 122.715   3
  -4  -2   6 1108.69 283.484   2
  -4  -2   6 351.296 143.943   3
  -4  -2   5 174.195 104.330   2
  -4  -2   5 83.8538 68.2300   1
  -4  -2   5-87.2899 71.3615   3
  -4  -2   4 223.295 102.017   4
  -4  -2   4 14.8957 118.618   2
  -4  -2   4 57.2541 60.9710   1
  -4  -2   4 196.888 88.8008   3
  -4  -2   3 2743.30 345.429   2
  -4  -2   3 3338.37 295.094   3
  -4  -2   3 2823.56 296.556   1
  -4  -2   3 3074.80 331.528   4
  -4  -2   2 554.147 136.498   1
  -4  -2   2 670.070 138.306   4
  -4  -2   2 533.603 140.751   2
   4   2  -2 594.133 108.715   1
  -4  -2   2 643.467 118.466   3
  -4  -2   1 83.1917 40.4126   3
   4   2  -1 126.604 56.3767   1
  -4  -2   1 48.0200 28.8750   4
  -4  -2   1 29.2436 65.2827   1
  -4  -2   1 30.6429 64.9467   2
   4   2  -1 147.138 66.9490   3
  -4  -2   0 18373.2 664.774   2
   4   2   0 18635.6 516.127   3
  -4  -2   0 18016.5 701.560   1
  -4  -2   0 18973.0 428.357   3
   4   2   1 5033.53 211.663   3
  -4  -2  -1 5071.08 170.442   4
  -4  -2  -1 5899.37 396.365   1
   4   2   2 5162.27 294.253   2
  -4  -2  -2 5426.76 383.826   1
   4   2   2 5726.07 195.049   3
  -4  -2  -2 5298.22 210.363   4
  -4  -2  -3 18679.5 693.275   1
   4   2   3 18732.3 438.026   4
  -4  -2  -3 18800.9 507.035   4
   4   2   4 218.553 69.1240   4
  -4  -2  -4 183.826 81.0172   1
  -4  -2  -4 169.899 72.5725   4
   4   2   4 228.208 69.5494   1
  -4  -2  -5 1481.73 203.028   1
  -4  -2  -5 1637.52 219.072   4
   4   2   5 1841.61 225.732   4
   4   2   5 1932.08 197.614   1
   4   2   6 959.463 186.630   4
  -4  -2  -6 956.949 184.423   4
   4   2   6 1075.40 148.991   1
  -4  -2  -6 915.010 155.496   1
   4   2   7-16.3202 35.0106   1
   4   2   7 121.785 76.9510   4
   4   2   7 89.6408 95.4811   3
  -4  -2  -7-59.1128 72.8191   1
   4   2   8 8962.83 666.847   3
  -4  -2  -8 8448.85 459.650   1
   4   2   9 670.176 220.644   3
   4   2  10 2223.26 390.506   3
   4   2  11 721.684 257.391   3
  -4  -3   6 293.569 133.168   3
  -4  -3   5 223.433 142.520   2
  -4  -3   5 160.385 98.2363   3
  -4  -3   4 70.6989 86.6696   3
  -4  -3   4 151.467 75.7027   1
  -4  -3   3 82.5410 70.0465   4
  -4  -3   3 118.915 70.8380   1
  -4  -3   3 126.664 70.6716   3
  -4  -3   2 37.6644 51.7065   4
  -4  -3   2-22.8132 55.8459   2
  -4  -3   2-45.3776 50.0352   1
  -4  -3   2-36.3457 42.8944   3
  -4  -3   1 1340.81 214.001   2
  -4  -3   1 1533.70 147.694   3
  -4  -3   1 1292.52 199.423   1
  -4  -3   1 1354.37 158.045   4
   4   3   0 6812.51 367.634   1
  -4  -3   0 6981.38 427.750   2
  -4  -3   0 6596.44 257.056   4
  -4  -3   0 6685.54 235.314   3
  -4  -3   0 6714.40 439.373   1
   4   3   1 14081.9 536.261   1
  -4  -3  -1 12864.3 519.412   2
  -4  -3  -1 13927.0 619.642   1
  -4  -3  -2 1333.50 189.598   1
   4   3   3 23584.0 551.197   2
   4   3   3 23626.2 362.479   4
  -4  -3  -3 24143.6 796.209   1
   4   3   4 18021.4 601.718   1
   4   3   4 18074.0 418.468   2
   4   3   4 17738.3 511.523   4
  -4  -3  -4 18603.7 691.836   1
   4   3   5 13864.7 516.863   1
   4   3   5 13065.9 543.857   3
  -4  -3  -5 13343.1 591.229   1
   4   3   5 12668.0 552.583   4
   4   3   6 9037.66 414.520   1
  -4  -3  -6 8932.52 483.662   1
   4   3   6 9447.09 561.667   4
   4   3   7 1944.16 193.578   1
   4   3   7 1960.60 290.441   4
   4   3   7 1956.37 272.809   3
  -4  -3  -7 1886.67 228.702   1
   4   3   8 636.635 173.584   3
  -4  -3  -8 685.872 139.763   1
  -4  -3  -9 1532.95 194.657   1
   4   3   9 1526.26 282.054   3
  -4  -3 -10 1001.94 137.041   1
   4   3  10 1040.85 262.975   3
   4   3  11 792.458 248.912   3
   4   3  12 572.200 263.118   3
  -4  -4   5 1968.89 389.377   2
  -4  -4   5 2030.04 294.222   3
  -4  -4   4 162.258 86.7339   1
  -4  -4   4 170.180 128.137   2
  -4  -4   4 146.932 91.8604   3
  -4  -4   3 4478.07 475.611   2
  -4  -4   3 3994.48 339.800   3
  -4  -4   3 3758.55 368.424   1
  -4  -4   2-3.43107 41.3243   4
  -4  -4   2-92.3270 83.3026   2
  -4  -4   2-76.4147 88.1406   1
  -4  -4   2-60.9669 57.3642   3
  -4  -4   1 10830.9 630.229   2
  -4  -4   1 11290.4 402.179   3
  -4  -4   1 10842.0 427.238   4
  -4  -4   1 10677.3 596.819   1
  -4  -4   0 388.500 114.578   1
  -4  -4   0 328.313 49.7478   4
  -4  -4   0 380.134 109.815   2
  -4  -4   0 354.002 53.0193   3
  -4  -4  -1 7777.49 424.991   2
  -4  -4  -1 8942.52 507.980   1
  -4  -4  -2 11296.7 441.281   2
  -4  -4  -2 12231.1 580.704   1
  -4  -4  -3 5674.60 389.935   1
  -4  -4  -4 975.362 175.415   1
   4   4   4 538.053 87.2734   4
   4   4   4 762.561 84.8775   3
   4   4   5 5016.83 147.506   2
   4   4   5 6102.65 318.921   3
   4   4   5 5854.52 354.973   4
  -4  -4  -5 5755.78 393.735   1
   4   4   6 3.56029 42.4651   4
   4   4   6 39.7801 41.7523   3
  -4  -4  -6 92.1080 76.2937   1
   4   4   7 20489.0 810.143   3
   4   4   7 21647.3 935.461   4
  -4  -4  -7 20276.0 757.276   1
   4   4   8 43128.8 1308.24   3
  -4  -4  -8 41608.0 1088.77   1
   4   4   8 41778.5 1451.77   4
  -4  -4  -9 764.738 156.657   1
   4   4   9 500.566 175.991   3
   4   4  10 5231.78 538.326   3
  -4  -4 -10 4358.40 321.148   1
   4   4  11 1670.29 334.118   3
   4   4  12 188.142 139.075   3
  -4  -5   4-112.632 120.698   2
  -4  -5   3 2425.52 371.734   2
  -4  -5   3 2592.49 281.934   3
  -4  -5   3 2864.01 345.344   1
  -4  -5   2 6382.44 562.514   2
  -4  -5   2 6413.74 379.173   3
  -4  -5   2 6638.17 501.036   1
  -4  -5   1 2018.08 269.062   1
  -4  -5   1 1781.81 276.644   2
  -4  -5   1 2068.63 179.141   3
  -4  -5   1 2231.61 186.470   4
  -4  -5   0 3628.77 354.504   2
  -4  -5   0 3048.41 152.095   3
  -4  -5   0 3056.95 147.127   4
  -4  -5   0 3111.75 316.282   1
  -4  -5  -1 1079.09 172.956   2
  -4  -5  -1 1117.09 188.647   1
  -4  -5  -2 248.807 78.6784   2
  -4  -5  -2 198.001 83.9129   1
  -4  -5  -3 10870.4 562.035   1
   4   5   4 277.123 54.6195   4
  -4  -5  -4 247.846 83.3247   1
   4   5   5 7404.16 290.391   3
   4   5   5 7264.72 385.914   4
  -4  -5  -5 7219.97 452.030   1
  -4  -5  -6 1567.14 219.906   1
   4   5   6 1762.90 228.553   4
   4   5   6 1371.33 169.383   3
   4   5   7 12185.8 689.467   4
  -4  -5  -7 10915.1 572.477   1
   4   5   8-8.13641 72.3843   4
   4   5   8 9.19382 25.0514   2
  -4  -5  -8 118.193 81.1463   1
   4   5   8-80.4490 89.1622   3
   4   5   9-1.40983 77.5889   3
   4   5   9 56.0318 37.3431   2
  -4  -5  -9 7.50402 66.5027   1
  -4  -5 -10 1774.55 231.228   1
   4   5  10 1625.98 289.780   3
   4   5  11 85.6310 79.1482   2
   4   5  11 489.707 188.229   3
   4   5  12 167.894 150.255   3
  -4  -6   4-118.672 177.324   2
  -4  -6   3-1.03077 115.141   2
  -4  -6   3 161.705 105.382   1
  -4  -6   2 3001.84 415.519   2
  -4  -6   2 2919.94 356.631   1
  -4  -6   1 378.558 134.220   1
  -4  -6   1 556.919 101.493   3
  -4  -6   0 1193.20 222.613   2
  -4  -6   0 1197.69 97.9296   3
  -4  -6   0 1333.84 221.462   1
  -4  -6   0 1469.37 112.656   4
  -4  -6  -1 6848.01 489.439   1
  -4  -6  -1 6230.58 443.561   2
  -4  -6  -2 29900.4 994.396   1
  -4  -6  -2 30157.4 837.530   2
  -4  -6  -3 4681.41 393.397   1
  -4  -6  -3 4427.16 257.396   2
   4   6   4 511.941 73.7852   4
   4   6   4 465.608 57.7177   4
  -4  -6  -4 331.418 101.910   1
  -4  -6  -5 5750.52 422.357   1
   4   6   5 5374.35 204.411   3
   4   6   5 5777.30 337.640   4
   4   6   6 3796.93 240.269   3
  -4  -6  -6 3238.16 319.869   1
   4   6   6 3519.79 318.890   4
   4   6   7 25933.1 1004.90   4
  -4  -6  -7 25715.1 896.258   1
  -4  -6  -8 6628.30 464.497   1
   4   6   8 6383.19 443.385   3
   4   6   8 6769.01 577.680   4
   4   6   9 11.8778 59.3449   3
  -4  -6  -9 14.7166 76.3184   1
   4   6  10 1421.42 149.449   2
  -4  -6 -10 1838.34 249.415   1
   4   6  10 1597.99 277.849   3
   4   6  11 299.543 144.174   3
   4   6  12 16.6743 84.0564   3
  -4  -7   3 49.7405 114.357   2
  -4  -7   2 210.559 115.489   1
  -4  -7   1 125.019 95.0290   1
  -4  -7   0 77.5182 76.7709   1
  -4  -7  -1 11140.4 660.700   1
  -4  -7  -2 4032.41 387.610   1
  -4  -7  -2 4755.87 360.361   2
  -4  -7  -3 4884.46 421.668   1
  -4  -7  -3 4237.09 284.607   2
  -4  -7  -4 30893.1 1043.09   1
   4   7   4 30808.5 540.164   4
  -4  -7  -5 5759.57 453.345   1
   4   7   5 5802.54 272.282   4
  -4  -7  -6 1988.69 269.863   1
   4   7   6 1940.49 157.451   3
   4   7   6 2114.23 258.712   4
   4   7   7 486.494 143.060   4
  -4  -7  -7 352.484 120.650   1
   4   7   8 1346.10 191.447   3
   4   7   8 865.101 206.713   4
  -4  -7  -8 809.232 175.673   1
  -4  -7  -9 676.293 159.177   1
   4   7   9 886.958 177.532   3
   4   7  10-164.927 97.6201   3
  -4  -7 -10 38.9094 60.2662   1
  -4  -7 -11 1209.39 211.060   1
   4   7  11 1241.66 255.625   3
   4   7  12 480.215 189.127   3
  -4  -8   2 331.438 123.354   1
  -4  -8   1 88.4881 103.470   1
  -4  -8   0 225.079 133.219   1
  -4  -8  -1 739.215 187.891   1
  -4  -8  -2 32.1708 79.3947   1
  -4  -8  -3 796.611 140.475   2
  -4  -8  -3 834.594 197.364   1
   4   8   4 485.133 83.3935   4
  -4  -8  -4 631.902 93.2435   2
  -4  -8  -4 646.360 171.763   1
  -4  -8  -5 1684.81 265.530   1
   4   8   5 1368.98 143.038   4
  -4  -8  -6 38.6966 62.9606   1
  -4  -8  -7 4977.41 447.492   1
   4   8   8 659.867 130.279   3
   4   8   8 532.715 168.611   4
  -4  -8  -8 608.832 163.182   1
  -4  -8  -9-232.731 109.241   1
   4   8   9 80.1007 76.6581   3
  -4  -8 -10 149.776 96.3177   1
   4   8  10-137.532 85.6931   3
  -4  -8 -11 2167.90 296.298   1
   4   8  11 1922.76 305.071   3
   4   8  12-38.4756 81.7643   3
  -4  -9   1 14.8457 101.225   1
  -4  -9   0 348.597 145.094   1
  -4  -9  -1 1.63244 110.242   1
  -4  -9  -2 38.1152 91.7678   1
  -4  -9  -3 1050.60 174.810   2
  -4  -9  -3 1425.65 254.824   1
  -4  -9  -4 2762.65 355.703   1
  -4  -9  -5 1607.60 266.261   1
   4   9   5 1877.30 185.192   4
  -4  -9  -6 616.889 164.111   1
  -4  -9  -7 127.424 109.135   1
   4   9   7 210.582 82.1083   4
   4   9   8 124.392 52.6654   3
  -4  -9  -8-34.0821 96.8139   1
   4   9   9 276.434 93.6756   3
  -4  -9  -9 144.568 94.6090   1
   4   9  10 143.714 102.162   3
  -4  -9 -10 131.816 79.1085   1
  -4  -9 -11 131.556 115.777   1
   4   9  11 24.9044 67.6893   3
   4   9  12 82.8567 96.7782   3
  -4 -10  -1 2371.67 378.348   1
  -4 -10  -2 78.7913 73.1284   1
  -4 -10  -3 209.566 110.003   1
  -4 -10  -4 496.896 178.261   1
  -4 -10  -5 776.901 201.784   1
  -4 -10  -6 796.127 193.924   1
  -4 -10  -7 263.382 126.943   1
   4  10   7 101.809 72.7210   4
  -4 -10  -8 469.547 159.592   1
   4  10   8 424.868 123.557   4
  -4 -10  -9-155.027 119.395   1
  -4 -10 -10 499.596 171.228   1
  -4 -10 -11 3124.40 408.107   1
  -4 -11  -5 83.4550 92.9612   1
  -4 -11  -6-23.2938 89.5110   1
  -4 -11  -7 992.504 238.522   1
  -4 -11  -8-5.45418 79.8116   1
  -4 -11  -9 283.672 142.409   1
  -4 -11 -10 917.252 245.062   1
  -4 -11 -11 61.0032 88.8602   1
  -5   9   4 67.8985 124.821   4
  -5   9   3 126.559 107.232   4
  -5   9   2 202.349 147.009   4
  -5   9   1 1295.87 299.340   4
  -5   9   0 1229.94 312.090   4
  -5   9  -1 99.1685 140.414   4
  -5   8   5 656.289 221.177   4
  -5   8   4-70.9919 110.056   4
  -5   8   3 1075.80 241.347   4
  -5   8   2 717.371 210.563   4
  -5   8   1-32.0636 103.103   4
  -5   8   0-84.2098 112.138   4
  -5   8  -1 78.3345 100.038   4
  -5   8  -2 1210.59 304.951   4
  -5   8  -3 99.6524 123.235   4
  -5   7   6 300.048 156.319   4
  -5   7   5-40.2431 101.487   4
  -5   7   4 241.566 139.533   4
  -5   7   3 266.058 142.732   4
  -5   7   2 867.347 225.680   4
  -5   7   1 149.610 100.226   4
  -5   7   0 124.503 113.000   4
  -5   7  -1 558.410 216.716   4
  -5   7  -2 133.078 123.551   4
  -5   7  -3 197.708 149.775   4
  -5   7  -4 175.044 141.584   4
  -5   7  -5 167.215 147.190   4
  -5   6   6 127.041 134.827   3
  -5   6   5 551.114 165.978   4
  -5   6   4 18.9885 60.7174   4
  -5   6   3 769.093 204.288   4
  -5   6   2-5.93671 67.1644   4
  -5   6   1 108.249 109.392   4
  -5   6   0 65.0077 87.8170   4
  -5   6  -1 469.817 162.066   4
  -5   6  -2-45.7169 85.5873   4
  -5   6  -3 629.751 210.976   4
  -5   6  -4 1775.97 361.015   4
  -5   6  -5 1839.03 389.950   4
  -5   6  -6 1219.72 353.926   4
  -5   5   7 147.272 116.341   3
  -5   5   6 1060.60 236.231   3
  -5   5   5 324.129 131.691   3
  -5   5   4 369.528 152.704   4
  -5   5   3 284.319 139.914   4
  -5   5   2 111.188 76.6228   4
  -5   5   1 25.0437 73.5855   4
  -5   5   0 615.144 172.330   4
  -5   5  -1 1343.88 246.173   4
  -5   5  -2 1227.80 255.751   4
  -5   5  -3 1539.75 310.760   4
  -5   5  -4 957.737 256.694   4
  -5   5  -5 688.861 218.922   4
  -5   5  -6 595.724 261.701   4
  -5   5  -7 4650.07 646.207   4
  -5   4   7 173.028 121.180   3
  -5   4   6 73.8835 80.6520   3
  -5   4   5 1041.13 210.621   3
  -5   4   4 3267.40 359.437   3
  -5   4   3 1061.27 203.498   4
  -5   4   2 729.268 175.348   4
  -5   4   1 1122.08 204.157   4
  -5   4   0 5414.11 447.363   4
  -5   4  -1 1580.06 247.170   4
  -5   4  -2 2794.46 356.271   4
  -5   4  -3 2876.31 377.653   4
  -5   4  -4-32.7658 81.1843   4
  -5   4  -5 772.798 233.765   4
  -5   4  -6 3174.15 484.668   4
  -5   4  -7 178.883 194.461   4
  -5   4  -8-141.617 202.703   4
  -5   3   7 134.880 101.472   3
  -5   3   6 69.7130 97.3569   3
  -5   3   5-26.3044 64.8841   3
   5  -3  -5 72.6701 107.265   1
  -5   3   4 3926.12 389.251   3
   5  -3  -4 3393.84 389.777   1
   5  -3  -3 359.703 146.372   1
  -5   3   3 519.659 141.118   3
   5  -3  -2 1154.37 242.386   1
  -5   3   2 1337.65 207.786   4
   5  -3  -1 4287.60 358.724   3
   5  -3  -1 4612.82 455.909   1
  -5   3   1 4089.84 356.221   4
   5  -3   0 11710.4 570.113   3
   5  -3   0 10970.6 687.108   1
  -5   3   0 11598.2 606.953   4
   5  -3   1 9517.57 517.985   3
   5  -3   1 8664.01 597.508   1
  -5   3  -1 8566.28 529.688   4
   5  -3   2 7136.58 543.042   1
   5  -3   2 7331.80 478.823   4
  -5   3  -2 7941.03 539.495   4
  -5   3  -3-95.6326 112.423   4
   5  -3   3 130.833 121.837   1
   5  -3   3-75.1850 70.6797   4
  -5   3  -4 163.618 108.172   4
  -5   3  -5-93.2443 104.456   4
  -5   3  -6 256.108 140.291   4
  -5   3  -7 1395.06 334.692   4
  -5   3  -8 210.523 177.332   4
  -5   3  -9 285.349 229.038   4
  -5   2   7 946.005 221.056   3
  -5   2   6 239.536 123.789   3
   5  -2  -5 759.602 167.899   1
  -5   2   5 648.903 167.810   3
  -5   2   4 312.930 108.617   3
   5  -2  -4 312.597 118.959   1
  -5   2   3 3546.81 330.615   3
   5  -2  -3 3318.58 360.697   1
  -5   2   2 304.402 103.109   3
   5  -2  -2 453.039 148.362   1
   5  -2  -2 305.009 115.010   3
   5  -2  -1 10556.3 608.905   2
   5  -2  -1 10539.4 536.658   3
  -5   2   1 10418.9 622.622   1
   5  -2  -1 10516.9 647.374   1
  -5   2   1 10453.7 532.375   4
  -5   2   0 26523.8 981.135   1
   5  -2   0 29098.5 845.825   3
   5  -2   0 27421.4 1048.39   1
  -5   2   0 27963.2 851.155   4
  -5   2  -1 1493.49 240.295   1
   5  -2   1 2049.94 227.673   3
   5  -2   1 2350.09 302.921   1
  -5   2  -1 2317.74 254.430   4
  -5   2  -2 383.697 116.820   4
   5  -2   2 523.890 156.182   1
   5  -2   2 289.511 96.4850   4
   5  -2   3 1541.83 217.376   4
  -5   2  -3 1340.43 227.135   4
   5  -2   3 1654.36 254.453   1
   5  -2   4 9947.17 629.043   1
   5  -2   4 9246.10 558.212   4
  -5   2  -4 9281.81 625.680   4
   5  -2   5 5951.32 496.913   1
  -5   2  -5 6175.98 559.332   4
  -5   2  -6 185.842 139.888   4
   5  -2   6 497.262 163.229   1
   5  -2   7 7387.77 564.692   1
  -5   2  -7 7618.32 710.840   4
  -5   2  -8 1462.96 338.203   4
  -5   2  -9 141.774 122.792   4
  -5   1   7 327.564 129.552   3
  -5   1   6 3714.37 406.567   3
  -5   1   5 224.967 103.194   3
  -5   1   4 8638.18 536.231   3
   5  -1  -4 9160.40 519.925   1
  -5   1   3 797.275 153.083   3
  -5   1   3 1016.18 200.595   1
   5  -1  -3 1097.91 200.448   1
  -5   1   2 93.9893 48.4281   3
  -5   1   2 191.456 114.938   1
   5  -1  -2-20.0453 62.4709   1
   5  -1  -2 26.5293 51.1419   3
   5  -1  -1 525.283 140.503   1
  -5   1   1 284.959 123.479   1
   5  -1  -1 354.685 120.121   2
   5  -1  -1 361.371 99.4143   3
  -5   1   1 255.911 78.0379   4
   5  -1   0 6072.45 431.720   2
   5  -1   0 5745.21 359.658   3
  -5   1   0 5377.97 440.080   1
   5  -1   0 5859.39 463.600   1
  -5   1   0 5726.47 355.223   4
  -5   1  -1 5486.90 447.573   1
   5  -1   1 5642.73 338.164   3
   5  -1   1 6435.24 485.034   1
  -5   1  -1 5510.49 356.201   4
  -5   1  -2 827.226 149.655   4
   5  -1   2 763.423 164.309   1
  -5   1  -2 1017.76 191.938   1
   5  -1   2 1067.35 155.785   4
   5  -1   3 1571.14 239.056   1
  -5   1  -3 1752.17 232.899   4
  -5   1  -3 1558.82 240.323   1
   5  -1   3 1784.27 213.908   4
   5  -1   4 1362.43 203.479   4
   5  -1   4 1227.40 208.603   1
  -5   1  -4 1492.99 235.246   4
  -5   1  -4 1365.61 225.453   1
   5  -1   5 5314.87 444.368   1
   5  -1   5 5597.04 445.479   4
  -5   1  -5 5044.36 474.598   4
   5  -1   6 38.4909 77.3777   1
  -5   1  -6 41.6683 104.138   4
  -5   1  -7 172.762 136.459   4
   5  -1   7 184.679 99.4615   1
  -5   1  -8 403.641 183.338   4
   5  -1   8 170.907 104.377   1
  -5   1  -9 1543.53 353.374   4
  -5   1 -10 142.534 157.012   4
  -5   0   7 185.667 134.427   3
  -5   0   6 135.538 106.035   2
  -5   0   6-19.7796 83.2150   3
  -5   0   5 3896.73 486.594   2
  -5   0   5 3913.57 372.285   1
  -5   0   5 3312.89 356.759   3
   5   0  -4 2810.52 266.525   1
  -5   0   4 3158.95 319.478   3
  -5   0   4 2478.73 307.533   1
  -5   0   3 9.06221 56.8844   3
  -5   0   3 145.055 86.4393   1
   5   0  -3 86.6232 64.6687   1
   5   0  -3 14.8852 63.2652   3
   5   0  -2 115.459 71.4996   1
  -5   0   2 14.9362 50.7535   3
  -5   0   2-2.99845 70.8199   1
   5   0  -2 40.9524 56.4089   3
   5   0  -1 2848.08 327.228   2
   5   0  -1 2960.83 276.612   3
  -5   0   1 3282.98 259.648   3
  -5   0   1 2762.43 320.219   1
   5   0  -1 3138.49 318.907   1
   5   0   0 644.896 147.821   2
  -5   0   0 957.327 203.710   1
   5   0   0 557.893 152.971   1
   5   0   0 481.920 100.906   3
  -5   0   0 627.582 120.149   4
   5   0   1 1971.24 235.698   2
   5   0   1 1885.06 252.689   1
   5   0   1 1726.73 171.389   3
  -5   0  -1 1853.59 260.091   1
  -5   0  -1 1868.08 186.844   4
  -5   0  -2 74.1646 49.7416   4
   5   0   2 150.426 58.5486   3
  -5   0  -2 91.4249 70.8438   1
   5   0   2 154.496 53.5523   4
  -5   0  -3 202.400 83.1769   4
   5   0   3 83.4640 58.3950   1
  -5   0  -3 166.925 86.9825   1
   5   0   3 239.596 69.5008   4
  -5   0  -4 8439.19 531.995   1
   5   0   4 8140.84 457.100   4
   5   0   4 8705.74 539.758   1
  -5   0  -4 7819.28 501.880   4
  -5   0  -5 8348.89 532.724   1
   5   0   5 8208.28 529.524   1
   5   0   5 8640.54 518.519   4
  -5   0  -5 8141.87 567.003   4
   5   0   6 3855.86 383.997   4
  -5   0  -6 3376.32 345.398   1
   5   0   6 4218.09 378.057   1
  -5   0  -6 3150.61 379.277   4
  -5   0  -7 229.686 129.453   4
   5   0   7-51.0540 71.0261   1
  -5   0  -8 961.336 237.522   4
   5   0   8 1183.01 196.082   1
  -5   0  -9 2527.94 438.350   4
   5   0  10 998.990 278.798   3
  -5  -1   7 330.494 170.343   3
  -5  -1   6 251.369 112.331   3
  -5  -1   5 1719.99 340.837   2
  -5  -1   5 742.902 180.943   3
  -5  -1   4 954.468 201.459   1
  -5  -1   4 935.147 180.681   3
  -5  -1   3 615.776 129.160   3
  -5  -1   3 533.635 148.803   4
  -5  -1   3 703.415 181.068   2
  -5  -1   3 534.014 152.266   1
   5   1  -3 937.257 200.860   3
   5   1  -3 691.575 140.642   1
   5   1  -2 23184.3 791.340   1
  -5  -1   2 23493.4 964.269   2
   5   1  -2 21746.3 846.429   3
  -5  -1   2 22510.7 701.709   3
  -5  -1   2 22491.5 914.287   1
  -5  -1   1 131.004 57.4182   3
   5   1  -1 73.7446 46.4525   1
   5   1  -1 209.644 84.4602   3
  -5  -1   1 62.3118 82.5888   1
   5   1   0 3262.64 326.169   2
   5   1   0 3089.29 242.820   3
  -5  -1   0 2805.14 315.294   1
  -5  -1   0 3707.69 232.372   4
   5   1   0 3242.45 308.770   1
   5   1   1 9105.21 499.663   2
   5   1   1 8930.84 358.555   3
  -5  -1  -1 9393.91 567.213   1
  -5  -1  -1 9649.12 367.670   4
   5   1   1 9796.00 543.947   1
   5   1   2 1851.76 210.321   2
   5   1   2 1684.74 151.093   3
  -5  -1  -2 1700.59 166.659   4
  -5  -1  -2 1588.06 240.767   1
  -5  -1  -3 1137.58 156.149   4
   5   1   3 1086.09 133.123   4
   5   1   3 869.607 168.500   1
  -5  -1  -3 925.259 180.858   1
   5   1   4-5.46760 33.0571   4
  -5  -1  -4-31.5176 49.6697   4
   5   1   4-46.1515 82.1910   1
  -5  -1  -4-74.8299 72.7561   1
  -5  -1  -5 5876.49 436.899   1
   5   1   5 6659.61 428.964   4
  -5  -1  -5 5958.89 450.058   4
   5   1   5 6191.67 435.221   1
  -5  -1  -6 2693.45 327.349   4
  -5  -1  -6 2779.30 304.230   1
   5   1   6 3421.44 349.046   4
   5   1   6 3107.82 310.490   1
   5   1   7-13.9315 56.1070   1
  -5  -1  -7-152.027 112.485   4
  -5  -1  -7-0.53777 51.6615   1
  -5  -1  -8 2169.83 354.679   4
  -5  -1  -8 2105.30 265.685   1
   5   1   8 2092.98 235.582   1
   5   1   9 180.725 74.7126   1
   5   1  10 787.132 256.244   3
   5   1  11 153.499 159.374   3
  -5  -2   6 774.667 209.886   3
  -5  -2   5 90.5372 146.700   2
  -5  -2   5 37.3154 57.6919   3
  -5  -2   4 967.341 239.093   2
  -5  -2   4 1181.46 215.218   1
  -5  -2   4 1293.44 205.515   3
  -5  -2   3 3334.72 401.637   2
  -5  -2   3 2679.93 276.372   3
  -5  -2   3 2690.06 324.941   1
  -5  -2   3 2410.80 305.687   4
  -5  -2   2 37.3940 54.0073   3
  -5  -2   2 31.4461 46.6948   4
  -5  -2   2 6.91754 87.3935   2
   5   2  -2 125.333 68.9239   1
   5   2  -2 177.262 92.1408   3
  -5  -2   2-11.1813 79.4159   1
   5   2  -1 3452.31 301.342   1
  -5  -2   1 3813.07 367.163   2
   5   2  -1 3459.38 299.813   3
  -5  -2   1 3324.81 235.504   3
  -5  -2   1 3039.08 344.934   1
  -5  -2   1 3296.99 271.279   4
   5   2   0 3400.82 302.839   1
   5   2   0 3168.63 243.832   3
  -5  -2   0 2915.12 323.860   1
  -5  -2   0 3375.78 194.578   4
   5   2   1 6994.39 436.680   1
   5   2   1 6104.48 286.895   3
  -5  -2  -1 6658.19 483.193   1
  -5  -2  -1 6454.94 242.192   4
  -5  -2  -2 314.649 60.9609   4
  -5  -2  -2 181.824 94.1996   1
   5   2   2 240.849 72.8953   2
   5   2   2 289.504 90.9783   1
   5   2   2 330.824 59.8655   3
   5   2   3 13645.3 522.275   2
  -5  -2  -3 14013.9 684.497   1
   5   2   3 13544.9 381.585   4
  -5  -2  -3 14476.7 480.794   4
  -5  -2  -4 11938.0 626.719   1
   5   2   4 12465.2 450.756   4
  -5  -2  -4 12782.6 530.712   4
   5   2   4 13679.4 607.805   1
  -5  -2  -5 77.7399 94.8267   1
   5   2   5-56.4571 58.2493   4
  -5  -2  -5-32.0390 61.2990   4
   5   2   5 33.5533 54.3052   1
  -5  -2  -6 4828.21 412.370   1
   5   2   6 5927.81 436.324   4
  -5  -2  -6 5285.56 434.837   4
   5   2   6 6110.81 404.595   1
   5   2   7 1142.53 215.808   4
  -5  -2  -7 865.635 204.040   4
   5   2   7 1080.97 172.686   1
  -5  -2  -7 1081.13 193.099   1
   5   2   8 642.887 130.792   1
  -5  -2  -8 608.678 140.771   1
  -5  -2  -9 67.8478 73.0803   1
   5   2   9 404.529 173.231   3
   5   2   9 356.652 99.6961   1
   5   2  10 501.068 168.377   3
   5   2  11-105.077 118.344   3
  -5  -3   5 947.370 277.850   2
  -5  -3   4 453.062 130.254   3
  -5  -3   4 697.324 180.079   1
  -5  -3   3 327.308 129.774   1
  -5  -3   3 202.499 103.181   2
  -5  -3   3 237.247 83.5939   3
  -5  -3   2 90.0419 64.5926   3
  -5  -3   2 223.125 83.1133   1
  -5  -3   2 107.534 66.8161   4
  -5  -3   2 184.622 118.811   2
  -5  -3   1 296.514 71.0467   3
  -5  -3   1 348.136 91.8166   4
  -5  -3   1 484.956 151.521   1
  -5  -3   1 633.628 174.400   2
   5   3   0 2455.39 251.109   1
  -5  -3   0 2373.72 281.989   2
  -5  -3   0 2575.52 139.920   4
  -5  -3   0 2330.52 298.862   1
  -5  -3   0 2605.76 179.854   4
   5   3   1 7210.24 430.040   1
   5   3   1 7174.74 281.036   3
  -5  -3  -1 6458.02 482.245   1
   5   3   2 1078.97 86.4029   3
  -5  -3  -2 1148.83 208.464   1
   5   3   2 1255.54 184.991   1
   5   3   3 163.795 32.5516   3
   5   3   3 233.063 82.0498   1
   5   3   3 155.805 60.5827   2
  -5  -3  -3 61.7360 103.170   1
   5   3   4 11147.3 538.837   1
   5   3   4 10554.2 405.537   2
   5   3   4 10321.3 344.372   4
  -5  -3  -4 9441.77 565.724   1
   5   3   5 7272.72 432.502   1
  -5  -3  -5 7463.60 502.602   1
   5   3   5 7593.30 389.449   4
   5   3   6 2642.70 258.319   1
  -5  -3  -6 2615.07 295.586   1
   5   3   6 2676.79 279.980   4
  -5  -3  -7 390.657 130.741   1
   5   3   7 295.559 120.819   4
   5   3   7 275.274 117.227   3
   5   3   7 345.450 100.166   1
   5   3   8 6987.09 413.253   1
   5   3   8 8848.04 634.105   3
  -5  -3  -8 8804.28 551.188   1
   5   3   8 9008.29 663.957   4
   5   3   9 14780.8 899.775   3
  -5  -3  -9 14127.2 677.577   1
  -5  -3 -10 118.956 69.1694   1
   5   3  10-50.3747 112.193   3
   5   3  11 138.792 136.032   3
   5   3  12 254.267 168.685   3
  -5  -4   4 716.178 227.609   2
  -5  -4   3 491.528 161.578   1
  -5  -4   3 450.883 176.030   2
  -5  -4   3 370.770 108.945   3
  -5  -4   2 324.867 138.155   1
  -5  -4   2 164.737 117.558   2
  -5  -4   2 290.695 81.0550   3
  -5  -4   1 4069.20 415.043   2
  -5  -4   1 4057.45 236.700   3
  -5  -4   1 3756.90 399.327   1
  -5  -4   1 4384.76 265.978   4
  -5  -4   0 1003.78 200.022   2
  -5  -4   0 913.073 197.286   1
  -5  -4   0 1030.66 90.6776   3
  -5  -4  -1 418.653 125.794   2
  -5  -4  -1 295.773 129.528   1
   5   4   2 9933.07 503.701   1
  -5  -4  -2 9587.45 595.377   1
   5   4   3 12682.4 563.765   1
  -5  -4  -3 13182.1 680.505   1
  -5  -4  -4 583.799 149.121   1
   5   4   4 464.494 61.8287   3
   5   4   4 470.994 50.2922   4
   5   4   4 328.382 100.929   1
   5   4   5 1206.88 113.853   2
  -5  -4  -5 1107.73 208.191   1
   5   4   5 1049.03 133.254   3
   5   4   5 1050.57 133.460   4
   5   4   5 1227.31 173.252   1
   5   4   6 2008.03 223.938   1
   5   4   6 2292.61 238.139   3
  -5  -4  -6 2575.49 307.417   1
   5   4   6 2240.29 247.530   4
   5   4   7 95.8677 65.2041   4
   5   4   7 223.236 88.5984   1
  -5  -4  -7 216.327 107.647   1
   5   4   7 74.5432 63.1220   3
   5   4   8 7868.66 563.984   3
  -5  -4  -8 8198.61 539.033   1
   5   4   8 7850.99 606.508   4
   5   4   9 1175.44 249.200   3
  -5  -4  -9 1253.68 214.888   1
  -5  -4 -10 2438.82 286.826   1
   5   4  10 1219.87 263.359   3
   5   4  11 610.527 226.168   3
   5   4  12 932.581 281.630   3
  -5  -5   3 76.5786 85.7322   1
  -5  -5   3 92.1695 131.037   2
  -5  -5   2 1671.84 308.080   2
  -5  -5   2 1498.87 266.125   1
  -5  -5   1 13728.6 798.877   2
  -5  -5   1 12632.8 394.203   3
  -5  -5   1 12802.0 762.608   1
  -5  -5   0 3058.33 346.102   2
  -5  -5   0 3458.02 390.729   1
  -5  -5  -1 2265.12 270.387   2
  -5  -5  -1 2573.66 330.702   1
  -5  -5  -2 418.719 108.306   2
  -5  -5  -2 410.372 143.293   1
  -5  -5  -3 3306.31 364.510   1
  -5  -5  -4 1033.14 197.946   1
   5   5   5 1426.43 107.674   3
   5   5   5 1391.67 130.965   4
  -5  -5  -5 1352.27 230.007   1
   5   5   6 15703.6 524.798   3
   5   5   6 16452.5 621.998   4
  -5  -5  -6 16136.4 771.881   1
   5   5   7 500.253 128.028   4
  -5  -5  -7 422.643 148.000   1
   5   5   8 2173.95 308.985   4
   5   5   8 2567.02 301.909   3
  -5  -5  -8 2468.96 301.822   1
  -5  -5  -9 9.33245 71.3313   1
   5   5   9 65.9530 83.3051   3
  -5  -5 -10 1433.14 233.848   1
   5   5  10 1240.75 262.296   3
  -5  -5 -11-35.0394 70.3328   1
   5   5  11 245.431 150.553   3
   5   5  12 79.3917 120.853   3
  -5  -6   3-120.123 148.993   2
  -5  -6   2 406.234 185.056   2
  -5  -6   2 415.143 152.567   1
  -5  -6   1-33.9879 72.6482   2
  -5  -6   1 62.7305 88.6732   1
  -5  -6   0 9460.81 635.254   2
  -5  -6   0 8876.30 635.780   1
  -5  -6  -1 1680.77 280.020   1
  -5  -6  -1 1776.19 252.097   2
  -5  -6  -2 24296.1 809.064   2
  -5  -6  -2 25095.7 1013.71   1
  -5  -6  -3 31905.0 1130.70   1
  -5  -6  -4 2958.50 336.623   1
  -5  -6  -5 642.697 174.699   1
   5   6   5 811.304 68.0198   4
   5   6   5 858.174 82.4176   4
  -5  -6  -6 3220.41 355.175   1
   5   6   6 2682.80 171.614   3
   5   6   6 2958.32 250.180   4
   5   6   7 1741.62 240.913   4
   5   6   7 1822.56 195.304   3
  -5  -6  -7 1948.00 282.138   1
   5   6   8 5285.72 383.810   3
   5   6   8 5835.26 502.354   4
  -5  -6  -8 5983.47 488.038   1
  -5  -6  -9 75.5064 83.7428   1
   5   6   9 75.6830 87.0175   3
  -5  -6 -10 33.9972 79.5757   1
   5   6  10 110.322 88.2992   3
  -5  -6 -11 345.504 123.613   1
   5   6  11 649.151 194.423   3
   5   6  12 145.673 111.522   3
  -5  -7   2 2077.15 362.302   2
  -5  -7   2 2675.05 388.548   1
  -5  -7   1 233.063 131.406   2
  -5  -7   1 278.667 146.731   1
  -5  -7   0 678.830 197.187   1
  -5  -7   0 998.362 224.550   2
  -5  -7  -1-15.5536 88.4674   1
  -5  -7  -1 155.572 115.821   2
  -5  -7  -2 884.224 199.046   1
  -5  -7  -2 1256.56 201.330   2
  -5  -7  -3 768.273 189.061   1
  -5  -7  -3 1192.63 164.181   2
  -5  -7  -4 17559.1 862.624   1
  -5  -7  -5-30.7146 94.9771   1
   5   7   6 436.180 88.3642   4
  -5  -7  -6 545.143 178.657   1
   5   7   7 20294.1 541.913   3
   5   7   7 18308.6 740.619   4
  -5  -7  -7 19717.6 913.567   1
  -5  -7  -8 720.662 178.176   1
   5   7   8 1068.30 218.330   4
   5   7   8 888.342 145.671   3
   5   7   9 807.311 162.543   3
  -5  -7  -9 853.257 196.776   1
  -5  -7 -10 1306.86 250.630   1
   5   7  10 1053.51 208.896   3
  -5  -7 -11 198.304 112.181   1
   5   7  11 213.887 124.022   3
   5   7  12 606.349 203.861   3
   5   7  13 66.6790 137.949   3
  -5  -8   1-149.592 141.422   2
  -5  -8   1 230.173 148.673   1
  -5  -8   0 122.015 98.1888   1
  -5  -8   0 101.652 79.1614   2
  -5  -8  -1 1092.17 241.757   1
  -5  -8  -1 1557.78 264.832   2
  -5  -8  -2 244.487 107.536   2
  -5  -8  -2 190.758 124.731   1
  -5  -8  -3 3968.55 447.161   1
  -5  -8  -3 3833.17 307.730   2
  -5  -8  -4 2697.93 358.731   1
  -5  -8  -5 3312.24 395.954   1
  -5  -8  -6 512.784 155.243   1
   5   8   6 471.761 76.5021   4
  -5  -8  -7 903.720 210.647   1
   5   8   7 1204.68 115.935   3
  -5  -8  -8 59.0259 64.4126   1
  -5  -8  -9 620.639 174.070   1
   5   8   9 558.584 124.772   3
   5   8  10 1731.07 244.376   3
  -5  -8 -10 1667.35 288.538   1
  -5  -8 -11 35.7518 73.7676   1
   5   8  11-26.9017 78.5979   3
   5   8  12 289.702 131.832   3
   5   8  13 472.974 214.246   3
  -5  -9   0 1047.96 286.434   1
  -5  -9  -1 453.737 176.503   1
  -5  -9  -2 629.698 201.016   1
  -5  -9  -3-71.9196 92.7634   1
  -5  -9  -4 2350.68 351.539   1
  -5  -9  -5 244.422 149.167   1
  -5  -9  -6-75.3083 102.155   1
  -5  -9  -7 909.981 222.135   1
  -5  -9  -8 1127.65 250.281   1
  -5  -9  -9-31.1648 104.325   1
  -5  -9 -10 70.2498 80.9609   1
  -5  -9 -11 338.219 171.213   1
  -5 -10  -3 325.188 179.306   1
  -5 -10  -4 61.7426 88.9602   1
  -5 -10  -5 2711.33 398.922   1
  -5 -10  -6 1349.23 284.153   1
  -5 -10  -7 1178.27 256.824   1
  -5 -10  -8 2192.12 348.090   1
  -5 -10  -9-107.716 95.9007   1
  -5 -10 -10 965.494 243.515   1
  -5 -10 -11 495.183 193.892   1
  -6   8   3 484.224 198.647   4
  -6   8   2 183.530 147.137   4
  -6   8   1 262.395 153.993   4
  -6   8   0 29.3351 115.311   4
  -6   8  -1 19.4613 106.729   4
  -6   8  -2 138.543 200.210   4
  -6   7   4 153.778 105.597   4
  -6   7   3 110.254 117.314   4
  -6   7   2 277.128 156.979   4
  -6   7   1 23.9362 85.1499   4
  -6   7   0-63.4407 117.598   4
  -6   7  -1 655.462 227.576   4
  -6   7  -2 686.384 217.968   4
  -6   7  -3 1261.54 333.760   4
  -6   7  -4-66.9613 161.917   4
  -6   6   5 139.849 106.811   4
  -6   6   4 222.118 146.538   4
  -6   6   3 135.658 96.9369   4
  -6   6   2-96.2548 92.7855   4
  -6   6   1 287.851 121.656   4
  -6   6   0 666.519 196.046   4
  -6   6  -1 353.850 167.015   4
  -6   6  -2 739.669 232.226   4
  -6   6  -3 937.156 283.732   4
  -6   6  -4 479.255 195.160   4
  -6   6  -5 42.7199 109.391   4
  -6   5   5 8.90865 75.0998   4
  -6   5   4 172.005 119.493   4
  -6   5   3 2134.05 324.934   4
  -6   5   2 12.8833 74.8045   4
  -6   5   1 90.5382 77.6404   4
  -6   5   0 558.446 161.567   4
  -6   5  -1 581.476 188.287   4
  -6   5  -2 365.824 168.103   4
  -6   5  -3 97.3542 120.122   4
  -6   5  -4 136.599 139.106   4
  -6   5  -5 32.8146 129.268   4
  -6   5  -6 1350.00 347.913   4
  -6   5  -7-142.665 214.832   4
  -6   4   6 183.621 123.198   3
  -6   4   5 256.892 126.640   3
  -6   4   4 1072.57 231.849   4
  -6   4   3 182.661 88.4779   4
  -6   4   2 78.0140 58.7306   4
  -6   4   1 180.897 101.517   4
  -6   4   0 2650.83 336.913   4
  -6   4  -1 531.995 150.303   4
  -6   4  -2 4108.46 457.142   4
  -6   4  -3-88.2752 114.465   4
  -6   4  -4 477.957 183.837   4
  -6   4  -5 179.987 144.709   4
  -6   4  -6-12.7005 125.645   4
  -6   4  -7 335.660 167.156   4
  -6   3   6 1668.08 303.583   3
  -6   3   5-9.89814 91.5844   3
  -6   3   4 118.717 78.9328   3
  -6   3   3 326.308 122.581   4
  -6   3   2 453.717 136.030   4
  -6   3   1 1278.03 215.937   4
  -6   3   0 14273.0 7178.14   4
  -6   3  -1 18135.2 818.248   4
  -6   3  -2 8515.06 586.375   4
  -6   3  -3 16840.2 8735.19   4
  -6   3  -4-146.651 110.719   4
  -6   3  -5 1282.16 272.669   4
  -6   3  -6 4062.97 538.852   4
  -6   3  -7 307.171 181.875   4
  -6   3  -8-4.28012 144.104   4
  -6   2   6 244.373 136.552   3
  -6   2   5 812.641 195.577   3
  -6   2   4 202.062 104.999   3
  -6   2   3 220.440 108.836   3
  -6   2   2 650.657 145.192   4
  -6   2   1 1142.95 193.426   4
  -6   2   0 8137.18 610.830   1
   6  -2   0 8712.21 508.876   3
  -6   2   0 8758.49 520.017   4
  -6   2  -1 17609.1 883.525   1
   6  -2   1 18097.1 713.763   3
  -6   2  -1 18234.2 759.449   4
  -6   2  -2 83.7472 68.4178   4
   6  -2   2 299.331 83.9235   3
  -6   2  -3 1508.75 244.932   4
   6  -2   3 1162.28 200.131   4
  -6   2  -4 976.846 217.689   4
  -6   2  -5 349.396 163.230   4
  -6   2  -6 4459.85 524.883   4
  -6   2  -7-139.255 154.661   4
  -6   2  -8 3808.11 546.938   4
  -6   2  -9 133.386 162.964   4
  -6   1   6 214.593 113.321   3
  -6   1   5 998.723 219.630   3
  -6   1   4 4623.20 422.184   3
  -6   1   3 3175.17 385.528   1
  -6   1   3 2911.38 327.797   3
  -6   1   2 5829.61 517.303   1
  -6   1   2 5819.78 424.029   4
  -6   1   1 40.1288 92.3754   1
   6  -1  -1 182.479 93.7601   3
  -6   1   1 171.769 86.7721   4
   6  -1   0 15661.6 646.606   3
  -6   1   0 15701.5 833.217   1
  -6   1   0 15279.6 632.467   4
   6  -1   1 35.0023 41.7705   3
  -6   1  -1-8.34765 56.8498   4
  -6   1  -1-67.7529 119.599   1
  -6   1  -2 53.9786 53.3061   4
   6  -1   2 25.3539 41.3274   3
  -6   1  -2-38.2225 81.6939   1
  -6   1  -3 254.688 96.8626   4
  -6   1  -3 304.955 137.209   1
   6  -1   3 324.936 105.063   4
   6  -1   4 100.109 72.8556   4
  -6   1  -4 3.90335 88.1358   4
  -6   1  -4 16.3871 68.0112   1
  -6   1  -5 1621.81 280.339   4
  -6   1  -5 1526.13 265.833   1
  -6   1  -6 193.325 134.196   4
  -6   1  -7 2023.89 360.637   4
  -6   1  -8 767.054 238.751   4
  -6   1  -9 335.072 197.299   4
  -6   1 -10 76.3401 138.235   4
  -6   0   6 560.037 179.927   3
  -6   0   5 17.0870 75.5858   3
  -6   0   4 79.5205 57.8254   3
  -6   0   4-104.468 86.9758   1
  -6   0   3 585.861 152.274   3
  -6   0   3 683.302 188.549   1
  -6   0   2 1122.73 187.401   3
  -6   0   2 1194.31 231.292   1
   6   0  -2 1041.35 194.591   3
  -6   0   1 1051.63 228.070   1
   6   0  -1 940.895 172.795   3
  -6   0   1 1164.69 168.229   4
  -6   0   0 8166.05 613.087   1
  -6   0   0 6814.71 397.587   4
   6   0   1 6408.99 471.494   2
   6   0   1 6431.78 373.916   3
  -6   0  -1 6430.26 529.425   1
  -6   0  -1 6780.87 388.586   4
  -6   0  -2 125.721 57.1599   4
   6   0   2 85.9832 49.5048   3
  -6   0  -2 148.765 85.1011   1
  -6   0  -3 2350.63 319.939   1
   6   0   3 2023.86 216.419   4
  -6   0  -3 2516.04 270.939   4
   6   0   4 119.192 50.5008   4
  -6   0  -4 26.0735 60.1789   4
  -6   0  -4 99.2638 68.8390   1
  -6   0  -5 1885.02 276.515   4
  -6   0  -5 2276.53 313.393   1
   6   0   5 1933.18 253.587   4
   6   0   6 193.794 112.870   4
  -6   0  -6 500.817 172.217   4
  -6   0  -6 241.922 132.620   1
  -6   0  -7 147.889 108.103   1
  -6   0  -7 2.79745 89.2751   4
  -6   0  -8 575.184 213.270   4
  -6   0  -9 117.993 125.497   4
  -6   0 -10 476.500 227.608   4
  -6  -1   5-70.8555 77.9083   3
  -6  -1   4 124.917 80.4173   3
  -6  -1   4-61.9860 84.1717   1
  -6  -1   3 764.032 164.612   3
  -6  -1   3 1056.18 231.500   1
  -6  -1   2-21.0593 55.2363   3
  -6  -1   2-22.2923 84.7244   1
   6   1  -2-118.422 82.8883   3
  -6  -1   1 772.836 197.315   1
   6   1  -1 1025.72 178.918   3
  -6  -1   1 926.614 140.821   4
  -6  -1   0 6.39641 71.7320   1
   6   1   0-21.1658 49.3100   3
  -6  -1   0 52.9411 43.8364   4
   6   1   1 3282.96 341.005   2
   6   1   1 3188.42 248.491   3
  -6  -1  -1 3192.51 370.306   1
  -6  -1  -1 3004.08 230.590   4
   6   1   2 7.20545 33.9291   3
  -6  -1  -2 90.0425 59.3205   4
   6   1   2-5.05155 49.0637   2
  -6  -1  -2 6.13501 64.1892   1
   6   1   3 5253.03 304.926   3
  -6  -1  -3 4475.59 433.864   1
   6   1   3 5027.42 300.303   4
  -6  -1  -3 4211.21 319.429   4
  -6  -1  -4 519.208 129.971   4
  -6  -1  -4 594.544 176.902   1
   6   1   4 600.369 112.306   4
   6   1   5-14.4408 43.0603   4
  -6  -1  -5 4.16474 69.3700   4
  -6  -1  -5-63.1019 76.6699   1
   6   1   6 1168.45 203.827   4
  -6  -1  -6 1142.19 224.463   4
  -6  -1  -6 599.605 170.574   1
  -6  -1  -7 84.3257 78.2668   4
  -6  -1  -7 204.241 112.348   1
  -6  -1  -8 1232.25 277.009   4
  -6  -1  -8 1259.63 230.269   1
  -6  -1  -9 477.882 200.641   4
   6   1  10 197.784 145.351   3
   6   1  11 157.614 130.007   3
  -6  -2   4 59.4258 76.0948   3
  -6  -2   4 175.290 125.659   2
  -6  -2   3-33.5768 53.0283   3
  -6  -2   3 55.7558 91.2080   2
  -6  -2   3 69.5561 99.7451   1
  -6  -2   2 205.363 80.9860   3
   6   2  -2 381.697 129.811   3
  -6  -2   2 332.243 129.069   1
  -6  -2   1 352.424 95.5278   3
  -6  -2   1 157.810 67.6448   4
   6   2  -1 320.224 105.894   3
  -6  -2   1 290.314 141.738   1
  -6  -2   1 287.288 77.8335   4
   6   2   0 449.079 107.818   3
  -6  -2   0 316.541 145.161   1
  -6  -2   0 403.431 79.7779   4
   6   2   1 3721.76 258.847   3
  -6  -2  -1 4252.56 434.332   1
  -6  -2  -1 4714.13 238.868   4
  -6  -2  -2 694.167 183.057   1
  -6  -2  -2 853.504 110.743   4
   6   2   2 645.615 147.401   2
   6   2   2 747.434 101.168   3
   6   2   3 2623.77 266.952   2
   6   2   3 2607.42 185.766   3
  -6  -2  -3 2822.95 363.373   1
  -6  -2  -3 2756.64 226.247   4
  -6  -2  -4 15.2670 56.4039   4
  -6  -2  -4-60.8245 65.6043   1
   6   2   4-54.2340 29.3813   4
  -6  -2  -5 5535.67 486.395   1
   6   2   5 4680.09 326.477   4
  -6  -2  -5 5311.28 403.352   4
  -6  -2  -6 4712.02 444.008   1
   6   2   6 5005.19 387.215   4
  -6  -2  -6 5130.53 438.426   4
  -6  -2  -7 4064.41 412.563   1
   6   2   7 5595.00 460.083   4
  -6  -2  -7 5317.87 491.668   4
  -6  -2  -8 1069.92 239.211   4
  -6  -2  -8 913.178 207.018   1
  -6  -2  -9-31.3649 81.4591   1
  -6  -2 -10 77.2062 70.0328   1
   6   2  10 120.573 130.878   3
   6   2  11-150.360 144.356   3
  -6  -3   4 933.091 278.444   2
  -6  -3   3 867.089 240.844   2
  -6  -3   3 779.001 204.103   1
  -6  -3   2-1.44709 46.9741   3
  -6  -3   2 132.153 124.178   2
  -6  -3   2-73.7546 82.8905   1
  -6  -3   1 613.439 184.791   1
  -6  -3   1 616.909 112.160   3
  -6  -3   1 763.725 104.617   4
  -6  -3   0 2473.98 343.855   1
  -6  -3   0 2882.99 158.417   4
  -6  -3   0 2936.43 200.438   4
  -6  -3  -1 465.041 162.056   1
   6   3   1 631.755 101.086   3
  -6  -3  -2 183.090 115.323   1
   6   3   2 168.247 45.8796   3
   6   3   3 13930.0 610.804   2
   6   3   3 13313.1 347.829   3
  -6  -3  -3 13363.9 755.850   1
  -6  -3  -3 13408.7 307.094   4
  -6  -3  -4 1600.13 262.385   1
   6   3   4 1834.12 207.357   2
   6   3   4 1827.36 136.809   4
  -6  -3  -4 1721.53 164.302   4
  -6  -3  -5 870.239 200.213   1
  -6  -3  -5 1300.54 177.293   4
   6   3   5 1202.92 158.753   2
   6   3   5 1374.50 156.192   4
  -6  -3  -6 217.997 121.582   1
   6   3   6 353.891 92.8611   4
   6   3   7 1310.22 215.482   4
  -6  -3  -7 1453.49 254.226   1
   6   3   8 22087.3 1016.15   3
  -6  -3  -8 19733.7 910.998   1
   6   3   8 20830.9 958.284   4
   6   3   9 7549.16 655.057   3
  -6  -3  -9 8011.67 569.906   1
  -6  -3 -10 793.189 187.013   1
   6   3  10 871.318 248.472   3
   6   3  11 892.931 277.266   3
   6   3  12 59.7631 140.593   3
  -6  -4   3 334.304 177.360   2
  -6  -4   3 268.108 135.080   1
  -6  -4   2 5797.31 567.050   2
  -6  -4   2 4833.40 502.416   1
  -6  -4   1 354.681 151.793   1
  -6  -4   1 463.355 163.703   2
  -6  -4   0 2955.71 359.471   2
  -6  -4   0 3231.78 403.374   1
  -6  -4  -1 39.8297 69.0750   1
  -6  -4  -2 2906.39 369.085   1
  -6  -4  -3 213.600 121.314   1
   6   4   4 1820.61 117.789   3
   6   4   4 1986.65 97.3476   3
  -6  -4  -4 2301.38 328.358   1
   6   4   5 2365.54 203.164   2
   6   4   5 1940.70 180.904   3
  -6  -4  -5 1944.96 295.916   1
   6   4   5 1906.36 145.788   4
   6   4   6 860.016 140.819   4
  -6  -4  -6 685.675 176.214   1
   6   4   6 614.355 96.8211   2
   6   4   6 654.531 130.672   3
   6   4   7 260.606 98.4174   4
  -6  -4  -7 281.572 126.384   1
  -6  -4  -8 392.208 143.427   1
   6   4   8 533.351 148.258   4
   6   4   8 288.922 130.513   3
   6   4   9 107.383 115.907   3
  -6  -4  -9-61.8835 93.7872   1
   6   4  10-122.998 125.779   3
  -6  -4 -10-51.3032 88.0289   1
  -6  -4 -11 436.438 135.496   1
   6   4  11 803.427 247.958   3
   6   4  12 302.060 180.468   3
  -6  -5   3 468.850 237.577   2
  -6  -5   2 344.473 154.601   1
  -6  -5   2 253.606 147.563   2
  -6  -5   1 1887.64 334.760   1
  -6  -5   1 1317.99 266.141   2
  -6  -5   0 450.225 171.187   1
  -6  -5   0 591.966 165.320   2
  -6  -5  -1 3934.78 441.451   1
  -6  -5  -2 2646.89 360.548   1
  -6  -5  -3 22067.5 1015.73   1
  -6  -5  -4 22.4361 88.6697   1
  -6  -5  -5 1982.97 302.832   1
   6   5   6 2799.98 208.887   3
   6   5   6 2714.55 209.939   4
  -6  -5  -6 2685.57 356.471   1
  -6  -5  -7 18570.4 912.108   1
   6   5   7 18139.0 700.262   4
   6   5   8 48.0345 86.4851   4
  -6  -5  -8-64.4582 137.170   1
   6   5   8 2.69716 13.2220   2
   6   5   8 76.2562 66.8413   3
  -6  -5  -9 494.509 147.572   1
   6   5   9 545.871 153.179   3
   6   5  10 369.631 170.684   3
  -6  -5 -10 714.972 185.785   1
  -6  -5 -11 263.507 113.406   1
   6   5  11 294.101 155.692   3
   6   5  12 273.510 166.660   3
  -6  -6   2 518.218 205.719   1
  -6  -6   2 401.830 170.834   2
  -6  -6   1-24.2584 120.698   1
  -6  -6   1 100.665 98.7572   2
  -6  -6   0 235.428 117.168   2
  -6  -6   0 662.886 217.310   1
  -6  -6  -1 2714.79 336.817   2
  -6  -6  -1 2210.38 350.430   1
  -6  -6  -2 3718.05 436.381   1
  -6  -6  -3 52.0072 91.5170   1
  -6  -6  -4 9234.63 673.167   1
  -6  -6  -5 8457.69 638.284   1
   6   6   6 6371.98 240.782   4
  -6  -6  -6 6558.04 561.016   1
   6   6   7 1505.79 160.164   3
  -6  -6  -7 1528.13 271.978   1
   6   6   7 1526.04 193.820   4
  -6  -6  -8 5682.86 519.640   1
   6   6   8 4927.50 422.548   4
  -6  -6  -9 400.706 140.802   1
   6   6   9 275.289 116.983   3
  -6  -6 -10 166.667 117.420   1
   6   6  10 183.139 108.057   3
  -6  -6 -11 1262.41 244.895   1
   6   6  11 1370.80 278.153   3
   6   6  12 239.421 158.394   3
   6   6  13 172.422 178.587   3
  -6  -7   1 13.8326 92.8212   2
  -6  -7   1-22.4123 145.551   1
  -6  -7   0 239.326 117.639   2
  -6  -7   0 146.326 150.103   1
  -6  -7  -1-11.3788 81.3518   2
  -6  -7  -1 200.977 146.747   1
  -6  -7  -2-42.7333 83.3990   2
  -6  -7  -2 21.1288 116.556   1
  -6  -7  -3 197.753 126.647   1
  -6  -7  -4 2786.87 381.697   1
  -6  -7  -5 3181.86 415.300   1
  -6  -7  -6 54.7291 66.8822   1
   6   7   7 499.286 63.1482   3
  -6  -7  -7 715.363 204.769   1
  -6  -7  -8 1599.92 292.824   1
  -6  -7  -9 24.6373 76.9769   1
   6   7   9-26.1740 43.8041   3
  -6  -7 -10-225.437 140.599   1
   6   7  10-7.26839 56.3271   3
  -6  -7 -11 955.020 224.149   1
   6   7  11 1169.53 242.082   3
   6   7  12 123.198 145.726   3
   6   7  13 31.9362 128.247   3
  -6  -8   0 103.386 145.529   1
  -6  -8  -1 79.3412 128.755   1
  -6  -8  -2 180.895 96.2669   1
  -6  -8  -3 197.778 145.927   1
  -6  -8  -4-14.8671 86.3528   1
  -6  -8  -5-42.5189 99.8927   1
  -6  -8  -6 817.861 212.618   1
  -6  -8  -7 1890.09 329.840   1
  -6  -8  -8 248.388 111.446   1
  -6  -8  -9 189.928 131.260   1
  -6  -8 -10 635.770 190.225   1
  -6  -8 -11 458.488 189.291   1
  -6  -9  -2 2274.80 405.203   1
  -6  -9  -3 485.834 189.173   1
  -6  -9  -4 79.6377 77.6289   1
  -6  -9  -5-83.9001 111.513   1
  -6  -9  -6 701.557 218.220   1
  -6  -9  -7 263.310 128.053   1
  -6  -9  -8 310.255 113.731   1
  -6  -9  -9 311.524 168.976   1
  -6  -9 -10 124.075 141.339   1
  -6  -9 -11 1859.98 355.460   1
  -6 -10  -7 395.482 191.337   1
  -6 -10  -8 1293.85 303.779   1
  -6 -10  -9 759.567 243.105   1
  -6 -10 -10 224.934 169.554   1
  -6 -10 -11 1295.12 298.660   1
  -7   7   2 21.2940 114.449   4
  -7   7   1 44.0079 110.735   4
  -7   7   0 717.518 236.247   4
  -7   7  -1 247.109 181.350   4
  -7   7  -2-39.0749 137.972   4
  -7   6   4 88.3859 120.329   4
  -7   6   3 92.3128 115.215   4
  -7   6   2 65.5252 114.416   4
  -7   6   1 129.524 120.315   4
  -7   6   0 146.604 121.508   4
  -7   6  -1-65.9487 103.372   4
  -7   6  -2 351.370 183.878   4
  -7   6  -3-15.7828 122.691   4
  -7   6  -4 266.971 133.448   4
  -7   5   4 633.956 197.326   4
  -7   5   3 201.846 109.311   4
  -7   5   2 586.316 187.870   4
  -7   5   1-90.2513 94.2252   4
  -7   5   0 939.328 236.686   4
  -7   5  -1 1698.14 316.890   4
  -7   5  -2-63.6318 107.331   4
  -7   5  -3 914.316 266.345   4
  -7   5  -4-58.3568 115.405   4
  -7   5  -5-268.724 170.979   4
  -7   5  -6 70.6350 177.330   4
  -7   4   5 228.822 127.359   4
  -7   4   4 359.026 182.568   4
  -7   4   3 823.270 222.126   4
  -7   4   2 42.4931 97.0058   4
  -7   4   1 1114.71 236.449   4
  -7   4   0 519.554 171.026   4
  -7   4  -1-15.8394 89.7392   4
  -7   4  -2 1743.22 312.643   4
  -7   4  -3 180.760 114.229   4
  -7   4  -4 95.2996 103.799   4
  -7   4  -5-68.8548 111.443   4
  -7   4  -6-92.7085 134.898   4
  -7   4  -7 31.1750 105.747   4
  -7   3   5 162.218 126.906   3
  -7   3   5 33.9377 78.1294   4
  -7   3   4 75.4226 97.5786   4
  -7   3   3-56.0250 84.3563   4
  -7   3   2 159.575 97.7004   4
  -7   3   1 60.9880 60.3666   4
  -7   3   0 10448.7 654.561   4
  -7   3  -1-94.2594 92.6914   4
  -7   3  -2-105.210 119.396   4
  -7   3  -3 59.7988 84.0362   4
  -7   3  -4 1253.05 278.290   4
  -7   3  -5 2025.61 351.836   4
  -7   3  -6 423.728 195.317   4
  -7   3  -7 1278.72 346.279   4
  -7   3  -8 225.053 189.044   4
  -7   2   5 235.377 125.151   3
  -7   2   4 947.889 231.257   4
  -7   2   3 1949.75 285.895   4
  -7   2   2-63.0626 88.8196   4
  -7   2   1 403.333 134.265   4
  -7   2   0 371.743 119.330   4
  -7   2  -1 111.204 72.3482   4
  -7   2  -2 511.045 149.241   4
  -7   2  -3 249.202 122.317   4
  -7   2  -4 327.241 141.294   4
  -7   2  -5 1054.57 242.407   4
  -7   2  -6 55.9553 114.876   4
  -7   2  -7 146.813 144.734   4
  -7   2  -8 416.226 227.096   4
  -7   2  -9-7.52304 160.785   4
  -7   1   5 78.0231 117.814   3
  -7   1   4 968.351 214.449   3
  -7   1   3-80.0790 74.8545   4
  -7   1   2 110.447 86.2668   1
  -7   1   2 147.402 80.8241   4
  -7   1   1 1089.64 262.363   1
  -7   1   1 1093.55 200.812   4
  -7   1   0 603.103 142.638   4
  -7   1   0 182.174 134.789   1
  -7   1  -1 740.442 164.992   4
  -7   1  -1 735.726 214.805   1
   7  -1   1 922.192 170.108   3
   7  -1   2 132.374 77.1353   3
  -7   1  -2 107.675 88.3559   4
  -7   1  -2-68.4066 92.3574   1
  -7   1  -3 24.6002 63.9224   4
  -7   1  -3 70.7896 87.7054   1
  -7   1  -4 823.620 194.190   4
  -7   1  -4 843.425 219.872   1
   7  -1   4 717.039 176.596   4
  -7   1  -5 10.7968 76.6756   4
  -7   1  -5 378.936 145.022   1
  -7   1  -6 942.205 237.971   4
  -7   1  -7 54.1761 117.702   4
  -7   1  -8 442.239 211.712   4
  -7   1  -9 114.320 175.115   4
  -7   0   4 226.700 107.744   3
  -7   0   3 400.707 146.175   3
  -7   0   3 337.817 165.037   1
  -7   0   3 170.551 96.9956   4
  -7   0   2 2550.71 383.067   1
  -7   0   2 2841.26 298.884   4
  -7   0   1 3263.20 423.738   1
  -7   0   1 3151.48 300.012   4
   7   0   0 2868.57 298.900   3
  -7   0   0 4170.16 336.514   4
  -7   0  -1 126.578 66.7914   4
  -7   0  -1 290.670 130.339   1
   7   0   1 291.995 94.0562   3
   7   0   2 500.974 112.378   3
  -7   0  -2 638.465 141.691   4
  -7   0  -2 513.830 176.046   1
  -7   0  -3 1651.96 235.580   4
  -7   0  -3 1972.50 338.370   1
   7   0   3 1530.24 202.013   3
  -7   0  -4 538.693 159.909   4
  -7   0  -4 820.628 222.578   1
   7   0   4 507.227 126.988   4
   7   0   5 1039.30 188.546   4
  -7   0  -5 922.355 212.341   4
  -7   0  -5 1260.55 272.202   1
  -7   0  -6 652.192 196.084   4
  -7   0  -6 723.422 200.334   1
  -7   0  -7 563.580 198.047   4
  -7   0  -7 454.672 158.828   1
  -7   0  -8-242.522 152.226   4
  -7   0  -9 291.658 168.901   4
  -7   0 -10 82.5239 169.695   4
  -7  -1   3 1361.25 214.975   3
  -7  -1   3 1108.80 269.036   1
  -7  -1   2 502.213 177.199   1
  -7  -1   2 329.557 106.063   4
  -7  -1   1 187.905 124.967   1
   7   1  -1 137.185 97.2644   3
  -7  -1   1 287.391 85.8222   4
  -7  -1   0 96.0546 63.8148   4
  -7  -1   0-45.5690 79.2429   1
   7   1   0 169.970 78.1455   3
  -7  -1  -1 440.035 100.361   4
  -7  -1  -1 318.084 140.298   1
   7   1   1 336.349 94.7572   3
   7   1   2 1937.95 204.538   3
  -7  -1  -2 2338.30 353.582   1
  -7  -1  -2 2117.30 220.319   4
   7   1   3 44.5969 42.8093   3
  -7  -1  -3 108.254 117.710   4
   7   1   3-30.4467 65.2979   2
  -7  -1  -3 6.50685 88.6797   1
  -7  -1  -4 8960.61 667.631   1
   7   1   4 8703.04 453.296   4
  -7  -1  -4 8007.83 513.306   4
  -7  -1  -5 1060.81 210.142   4
  -7  -1  -5 1147.43 246.249   1
   7   1   5 1337.75 201.203   4
   7   1   6 57.6837 72.7722   4
  -7  -1  -6-79.4614 71.4239   1
  -7  -1  -7 1471.95 283.112   4
  -7  -1  -7 1297.84 275.342   1
  -7  -1  -8 1050.86 277.957   4
  -7  -1  -8 1198.04 241.635   1
  -7  -1  -9 76.0592 89.6304   1
  -7  -1  -9 494.457 212.519   4
  -7  -1 -10 49.7952 115.137   4
   7   1  11 48.3585 137.799   3
  -7  -2   3-20.2570 119.168   1
  -7  -2   2 102.054 99.3341   1
  -7  -2   1 53.0654 111.239   1
  -7  -2   0 46.7658 35.1935   4
   7   2   0 38.2386 47.1209   3
  -7  -2   0-74.6888 148.349   1
  -7  -2  -1-23.0710 27.1004   4
   7   2   1-11.4918 39.7299   3
  -7  -2  -1-77.1565 89.6700   1
   7   2   2 2383.48 210.804   3
  -7  -2  -2 2400.81 358.643   1
  -7  -2  -2 2309.43 196.138   4
   7   2   3 3153.72 335.139   2
   7   2   3 2429.88 203.050   3
  -7  -2  -3 2988.43 392.924   1
  -7  -2  -3 2869.52 243.043   4
   7   2   4 449.815 95.8268   3
  -7  -2  -4 397.141 105.201   4
   7   2   4 356.634 110.803   2
  -7  -2  -4 261.750 119.314   1
  -7  -2  -5 3596.54 420.947   1
   7   2   5 3435.22 279.559   4
  -7  -2  -5 3342.97 330.392   4
   7   2   6 453.857 126.715   4
  -7  -2  -6 385.097 145.081   4
  -7  -2  -6 225.147 131.953   1
   7   2   7 1572.73 236.857   4
  -7  -2  -7 1092.44 239.768   4
  -7  -2  -7 915.468 214.291   1
  -7  -2  -8 246.754 125.612   4
  -7  -2  -8 365.417 153.049   1
  -7  -2  -9 7416.63 601.864   1
  -7  -2  -9 7615.24 691.278   4
  -7  -2 -10 562.835 182.165   1
   7   2  10 798.252 258.632   3
   7   2  11 507.550 215.390   3
  -7  -3   2 659.697 220.755   1
  -7  -3   1 582.459 204.336   1
  -7  -3   0 1124.48 260.122   1
  -7  -3  -1 404.447 174.707   1
  -7  -3  -2 1561.65 293.328   1
   7   3   2 1582.95 160.748   3
   7   3   3 55.1788 54.8571   2
  -7  -3  -3 88.5591 25.8579   4
   7   3   3 130.432 43.3041   3
  -7  -3  -4 2050.86 331.360   1
   7   3   4 1937.70 246.817   2
   7   3   4 2147.20 164.659   3
  -7  -3  -4 2255.99 187.510   4
  -7  -3  -5 35.0013 57.9305   4
   7   3   5 133.979 70.3006   2
   7   3   5 52.6885 45.1463   4
  -7  -3  -5 52.1708 76.8856   1
   7   3   6 19.1473 40.9215   4
  -7  -3  -6 23.7963 52.4794   4
  -7  -3  -6-26.5527 104.346   1
   7   3   7-27.7092 51.8821   4
  -7  -3  -7-63.8557 82.6715   1
  -7  -3  -8 792.069 195.313   1
  -7  -3  -9 5.73434 85.3380   1
   7   3   9 137.306 127.087   3
  -7  -3 -10 536.489 183.806   1
   7   3  10 401.591 193.625   3
   7   3  11-52.3912 123.855   3
   7   3  12 297.746 233.846   3
  -7  -4   2-12.0832 90.6315   1
  -7  -4   1 3416.33 455.811   1
  -7  -4   0 3409.33 457.362   1
  -7  -4  -1 232.001 142.610   1
  -7  -4  -2 15.2538 109.252   1
  -7  -4  -3 1633.45 307.482   1
  -7  -4  -4 1875.01 321.336   1
   7   4   4 1709.39 104.568   3
  -7  -4  -5 1086.68 264.539   1
   7   4   5 1184.48 179.529   2
   7   4   5 1215.24 109.472   3
   7   4   6 5337.62 345.213   2
   7   4   6 5351.35 367.851   3
  -7  -4  -6 4636.87 490.840   1
   7   4   6 5225.66 299.461   4
  -7  -4  -7 890.124 227.923   1
   7   4   7 831.772 158.539   4
   7   4   7 1073.00 154.175   2
   7   4   8 3908.04 406.728   3
  -7  -4  -8 3628.38 434.716   1
   7   4   8 3184.20 340.822   4
   7   4   9 313.845 132.298   3
  -7  -4  -9 179.111 113.235   1
  -7  -4 -10 211.306 104.341   1
   7   4  10 419.861 178.497   3
  -7  -4 -11 18.6339 81.8020   1
   7   4  11-141.808 124.360   3
   7   4  12 197.621 158.701   3
  -7  -5   2 58.0839 132.613   1
  -7  -5   1 1537.27 333.927   1
  -7  -5   0 2270.35 373.449   1
  -7  -5  -1 426.156 178.324   1
  -7  -5  -2 6633.42 625.645   1
  -7  -5  -3 11887.9 824.330   1
  -7  -5  -4 5070.73 537.345   1
  -7  -5  -5 4474.53 498.477   1
   7   5   6 3345.34 205.523   3
   7   5   6 2979.40 158.676   4
  -7  -5  -7 2171.23 340.155   1
   7   5   7 1330.81 178.264   3
  -7  -5  -8 536.931 174.479   1
   7   5   8 803.532 172.065   3
  -7  -5  -9 220.638 141.131   1
   7   5   9 303.948 121.657   3
   7   5  10 154.853 105.702   3
  -7  -5 -10 105.548 100.059   1
  -7  -5 -11 246.370 129.385   1
   7   5  11 203.598 130.328   3
   7   5  12-78.8501 121.392   3
  -7  -6   1 212.652 163.835   1
  -7  -6   1 161.687 119.156   2
  -7  -6   0 207.380 154.976   1
  -7  -6  -1 347.084 158.733   1
  -7  -6  -2 3535.61 470.493   1
  -7  -6  -3 1163.18 277.843   1
  -7  -6  -4 2928.16 423.889   1
  -7  -6  -5 3873.50 477.838   1
  -7  -6  -6 414.523 165.396   1
  -7  -6  -7 1779.97 322.204   1
  -7  -6  -8 9327.73 725.945   1
  -7  -6  -9 475.687 171.466   1
   7   6   9 311.447 101.053   3
  -7  -6 -10 267.744 133.158   1
   7   6  10 347.527 119.757   3
   7   6  11 345.140 148.922   3
  -7  -6 -11 656.115 214.942   1
   7   6  12 173.201 135.418   3
  -7  -7   0 125.548 157.061   1
  -7  -7   0 71.9407 135.479   2
  -7  -7  -1 25.1048 129.877   1
  -7  -7  -2 645.503 229.309   1
  -7  -7  -3 2549.43 411.231   1
  -7  -7  -4 15.4323 106.004   1
  -7  -7  -5 2173.29 366.612   1
  -7  -7  -6 309.393 161.225   1
  -7  -7  -7 829.395 228.193   1
  -7  -7  -8 917.348 251.585   1
  -7  -7  -9 473.214 207.768   1
  -7  -7 -10 761.040 230.569   1
  -7  -7 -11 466.690 190.178   1
  -7  -8  -3 374.636 173.033   1
  -7  -8  -4 1145.67 277.517   1
  -7  -8  -5 2166.01 395.045   1
  -7  -8  -6 175.597 120.283   1
  -7  -8  -7 439.343 191.259   1
  -7  -8  -8 52.4009 113.620   1
  -7  -8  -9 358.127 150.625   1
  -7  -8 -10 296.349 165.466   1
  -7  -8 -11-18.2470 94.8076   1
  -7  -9  -6 1380.99 336.687   1
  -7  -9  -7 655.359 230.186   1
  -7  -9  -8 146.468 143.286   1
  -7  -9  -9 906.380 277.817   1
  -7  -9 -10 1092.10 280.246   1
  -7  -9 -11 171.589 114.044   1
  -8   6   1-18.4864 115.900   4
  -8   6   0-261.186 155.971   4
  -8   6  -1 518.994 239.629   4
  -8   6  -2 86.7869 155.824   4
  -8   6  -3-291.347 172.808   4
  -8   5   3 1.02640 139.832   4
  -8   5   2-20.8962 94.1881   4
  -8   5   1 142.790 111.152   4
  -8   5   0-100.148 116.199   4
  -8   5  -1 1218.82 284.743   4
  -8   5  -2 459.743 182.684   4
  -8   5  -3 219.764 177.485   4
  -8   5  -4-48.8482 132.163   4
  -8   5  -5 127.972 203.683   4
  -8   4   4-196.778 168.638   4
  -8   4   3 130.315 115.815   4
  -8   4   2-119.351 112.275   4
  -8   4   1 295.323 128.974   4
  -8   4   0 2545.13 371.828   4
  -8   4  -1 1778.26 312.879   4
  -8   4  -2 1125.23 267.038   4
  -8   4  -3 674.884 221.631   4
  -8   4  -4 2707.99 437.465   4
  -8   4  -5 646.166 260.431   4
  -8   4  -6 751.882 260.878   4
  -8   3   4 119.777 112.908   4
  -8   3   3 3.47987 94.1353   4
  -8   3   2 59.0839 88.4732   4
  -8   3   1 644.371 192.339   4
  -8   3   0 742.289 192.368   4
  -8   3  -1 2297.21 344.871   4
  -8   3  -2 626.586 196.265   4
  -8   3  -3 10.8801 89.6738   4
  -8   3  -4 416.644 178.586   4
  -8   3  -5 52.9384 131.974   4
  -8   3  -6 577.497 210.390   4
  -8   3  -7 121.085 206.008   4
  -8   2   3 1598.88 303.205   4
  -8   2   2 38.5377 81.4060   4
  -8   2   1 403.215 147.814   4
  -8   2   0 1050.27 215.298   4
  -8   2  -1 3132.40 362.586   4
  -8   2  -2 563.629 162.281   4
  -8   2  -3 86.4750 99.7160   4
  -8   2  -4 124.667 118.702   4
  -8   2  -5 183.740 162.273   4
  -8   2  -6 166.635 126.818   4
  -8   2  -7 441.304 243.953   4
  -8   2  -8 763.183 289.065   4
  -8   1   2 66.6054 85.7765   4
  -8   1   1 127.185 93.4126   4
  -8   1   1 489.421 215.047   1
  -8   1   0-84.9165 83.9899   4
  -8   1   0 312.299 169.490   1
  -8   1  -1 49.4499 54.4372   4
  -8   1  -1-75.8433 114.935   1
  -8   1  -2 713.632 184.940   4
  -8   1  -2 879.882 248.312   1
  -8   1  -3 1676.41 271.474   4
  -8   1  -3 2031.90 352.675   1
  -8   1  -4 113.019 72.9248   4
  -8   1  -4 58.9729 85.7632   1
  -8   1  -5 42.0721 102.231   4
  -8   1  -5 257.408 150.952   1
  -8   1  -6-30.6188 112.788   4
  -8   1  -7-52.4734 105.834   4
  -8   1  -8 29.4839 120.165   4
  -8   1  -9-61.3900 118.049   4
  -8   0   3-154.128 134.800   1
  -8   0   2 314.417 174.255   1
  -8   0   1 207.633 134.998   1
  -8   0   0 804.802 160.195   4
  -8   0   0 1317.00 309.427   1
  -8   0  -1 72.5152 56.8449   4
  -8   0  -1 201.623 155.030   1
  -8   0  -2 215.964 95.1959   4
  -8   0  -2 333.568 174.975   1
  -8   0  -3 93.5663 87.9403   4
  -8   0  -3-54.2276 104.506   1
  -8   0  -4 795.609 186.125   4
  -8   0  -4 619.234 213.551   1
  -8   0  -5 46.7570 76.6703   4
  -8   0  -5-66.7218 114.540   1
  -8   0  -6 533.501 190.797   4
  -8   0  -6 343.521 152.190   1
  -8   0  -7 77.9273 91.7026   4
  -8   0  -7-11.4104 104.927   1
  -8   0  -8 58.1355 107.409   4
  -8   0  -9 358.786 238.067   4
  -8   0 -10 70.0975 127.591   4
  -8  -1   2 145.763 160.342   1
  -8  -1   1-151.598 115.948   1
  -8  -1   0-3.09119 105.438   1
  -8  -1  -1 137.159 68.6711   4
  -8  -1  -1-50.2969 135.735   1
  -8  -1  -2 838.004 158.788   4
  -8  -1  -2 758.750 224.382   1
   8   1   2 680.127 137.191   3
   8   1   3 221.762 85.8348   3
  -8  -1  -3 89.0787 60.4009   4
  -8  -1  -3 96.7223 118.564   1
   8   1   4-7.20605 59.6059   3
  -8  -1  -4-47.5110 64.0299   4
  -8  -1  -4-43.4751 124.303   1
  -8  -1  -5 80.8966 91.3403   4
  -8  -1  -5-12.5631 85.5423   1
   8   1   5-68.1657 50.4326   4
  -8  -1  -6 1590.04 284.780   4
  -8  -1  -6 1930.72 346.128   1
  -8  -1  -7 1897.96 330.034   4
  -8  -1  -7 1832.46 341.685   1
  -8  -1  -8 2030.36 357.310   4
  -8  -1  -8 1735.80 324.929   1
  -8  -1  -9 64.3267 85.5046   1
  -8  -1  -9 177.040 155.239   4
  -8  -1 -10 71.1652 152.592   4
  -8  -2   2 132.528 138.593   1
  -8  -2   1-81.6450 112.506   1
  -8  -2   0 332.733 176.172   1
  -8  -2  -1 1297.74 298.270   1
  -8  -2  -2 198.531 132.898   1
  -8  -2  -3 855.702 144.403   4
  -8  -2  -3 989.941 262.366   1
   8   2   4 996.117 147.351   3
  -8  -2  -4 1381.05 206.164   4
  -8  -2  -4 1311.99 292.142   1
   8   2   5 774.420 137.793   3
  -8  -2  -5 833.647 175.689   4
  -8  -2  -5 1024.07 260.649   1
  -8  -2  -6 563.716 156.928   4
  -8  -2  -6 812.107 231.746   1
   8   2   6 225.648 95.6280   4
  -8  -2  -7 431.164 159.181   4
  -8  -2  -7 451.655 185.313   1
  -8  -2  -8 2067.33 349.457   4
  -8  -2  -8 2869.64 415.921   1
  -8  -2  -9 4720.17 544.090   1
  -8  -2  -9 5094.51 576.622   4
  -8  -2 -10 67.6743 160.110   1
   8   2  11 246.871 137.774   3
  -8  -3   2 645.522 252.568   1
  -8  -3   1 2090.82 389.968   1
  -8  -3   0 267.973 198.372   1
  -8  -3  -1 133.608 137.080   1
  -8  -3  -2 1560.68 322.578   1
  -8  -3  -3 874.885 243.897   1
  -8  -3  -4 495.173 212.677   1
  -8  -3  -5 283.929 88.1231   4
   8   3   5 276.655 115.095   2
  -8  -3  -6 1345.18 211.545   4
   8   3   6 1378.25 230.443   2
  -8  -3  -6 1594.96 301.468   1
  -8  -3  -7 845.172 186.810   4
  -8  -3  -7 1010.51 263.647   1
  -8  -3  -8 2167.68 368.199   1
  -8  -3  -9-86.1212 104.801   1
  -8  -3 -10 287.738 176.311   1
   8   3  10 232.801 149.518   3
  -8  -3 -11 103.094 79.3699   1
   8   3  11 295.095 207.045   3
   8   3  12 10.1280 201.678   3
  -8  -4   1 259.312 191.856   1
  -8  -4   0-71.0994 118.423   1
  -8  -4  -1 82.5682 114.133   1
  -8  -4  -2 308.341 160.076   1
  -8  -4  -3 7396.74 680.236   1
  -8  -4  -4 3215.83 452.193   1
  -8  -4  -5 57.4972 79.0848   1
  -8  -4  -6 1189.57 285.446   1
   8   4   7 453.817 138.280   3
  -8  -4  -7 837.822 262.423   1
   8   4   8 1023.19 224.793   3
  -8  -4  -8 1230.63 279.135   1
   8   4   9 522.166 175.312   3
  -8  -4  -9 399.658 162.619   1
  -8  -4 -10 144.171 86.1892   1
   8   4  10 168.631 155.432   3
  -8  -4 -11 8.81500 123.319   1
   8   4  11 64.2910 140.878   3
   8   4  12-1.30688 110.791   3
  -8  -5   0 207.449 139.732   1
  -8  -5  -1 1271.72 314.663   1
  -8  -5  -2 670.802 227.240   1
  -8  -5  -3 290.090 148.446   1
  -8  -5  -4 731.084 220.328   1
  -8  -5  -5 1363.19 305.208   1
  -8  -5  -6 2694.95 427.995   1
  -8  -5  -7 5221.29 576.335   1
  -8  -5  -8 1125.55 275.561   1
   8   5   9 230.432 100.761   3
  -8  -5  -9 226.221 141.711   1
   8   5  10 359.526 156.422   3
  -8  -5 -10-48.8452 102.671   1
  -8  -5 -11 345.441 140.680   1
   8   5  11 264.668 162.918   3
   8   5  12-447.247 204.898   3
  -8  -6  -1-226.953 201.102   1
  -8  -6  -2 215.298 152.474   1
  -8  -6  -3 73.9111 107.204   1
  -8  -6  -4 1975.13 379.777   1
  -8  -6  -5 74.2492 126.125   1
  -8  -6  -6 334.346 175.551   1
  -8  -6  -7 1798.92 358.748   1
  -8  -6  -8-55.7636 91.6636   1
  -8  -6  -9 492.694 166.311   1
  -8  -6 -10 243.015 166.868   1
  -8  -6 -11 701.086 232.579   1
  -8  -7  -4-21.8838 121.940   1
  -8  -7  -5 31.0193 92.2366   1
  -8  -7  -6 220.069 118.363   1
  -8  -7  -7-105.260 161.960   1
  -8  -7  -8 597.695 211.062   1
  -8  -7  -9 512.219 170.502   1
  -8  -7 -10-57.5426 107.734   1
  -8  -7 -11 223.608 141.800   1
  -8  -8  -9 28.5876 136.784   1
  -8  -8 -10 488.064 227.377   1
  -9   5   0 83.3290 155.272   4
  -9   5  -1 94.4772 153.854   4
  -9   5  -2 223.750 213.090   4
  -9   5  -3 230.800 191.376   4
  -9   4   1-140.879 117.355   4
  -9   4   0 644.407 215.953   4
  -9   4  -1 644.584 236.395   4
  -9   4  -2-52.4078 114.465   4
  -9   4  -3 248.364 138.116   4
  -9   4  -4-248.125 159.461   4
  -9   4  -5 111.694 139.100   4
  -9   3   1 7.22992 101.721   4
  -9   3   0 453.985 174.838   4
  -9   3  -1 20.7860 81.5346   4
  -9   3  -2-153.325 120.534   4
  -9   3  -3 265.196 142.484   4
  -9   3  -4 116.724 108.700   4
  -9   3  -5-142.104 150.467   4
  -9   3  -6 131.444 120.098   4
  -9   2   0 920.772 211.912   4
  -9   2  -1 253.365 119.537   4
  -9   2  -2-7.46968 92.8606   4
  -9   2  -3-288.926 143.568   4
  -9   2  -4 107.035 121.067   4
  -9   2  -5 154.037 138.356   4
  -9   2  -6 114.384 157.725   4
  -9   2  -7 45.4645 170.187   4
  -9   2  -8 19.1948 204.385   4
  -9   1   0 220.889 149.611   1
  -9   1  -1 198.541 110.678   4
  -9   1  -1 90.8964 143.892   1
  -9   1  -2 74.0678 78.8354   4
  -9   1  -2 434.535 187.982   1
  -9   1  -3 122.333 100.044   4
  -9   1  -3 145.459 113.684   1
  -9   1  -4 22.2955 88.6533   4
  -9   1  -4 231.047 159.727   1
  -9   1  -5-32.8815 112.822   4
  -9   1  -5 132.239 175.291   1
  -9   1  -6 258.730 166.812   4
  -9   1  -7 66.0594 129.442   4
  -9   1  -8-1.33820 146.455   4
  -9   1  -9-245.930 221.765   4
  -9   0   2 228.237 217.508   1
  -9   0   1 82.3845 117.918   1
  -9   0   0 212.287 95.6174   1
  -9   0  -1-271.866 173.585   1
  -9   0  -2-6.97645 103.000   1
  -9   0  -3 621.397 171.435   4
  -9   0  -3 658.403 240.544   1
  -9   0  -4 41.9324 91.7067   4
  -9   0  -4 87.5665 139.371   1
  -9   0  -5 2169.38 346.899   4
  -9   0  -5 3094.53 467.373   1
  -9   0  -6-69.9325 99.9091   4
  -9   0  -6 331.403 203.493   1
  -9   0  -7-24.7362 123.352   4
  -9   0  -7 27.7854 109.143   1
  -9   0  -8 615.252 221.751   4
  -9   0  -9 644.156 277.013   4
  -9  -1   1 146.319 137.671   1
  -9  -1   0 29.1260 93.2487   1
  -9  -1  -1-57.1971 136.782   1
  -9  -1  -2 406.215 213.479   1
  -9  -1  -3 217.327 116.128   1
  -9  -1  -4 1258.18 313.068   1
  -9  -1  -5 215.929 119.461   4
  -9  -1  -5 72.8770 104.917   1
  -9  -1  -6 738.290 200.364   4
  -9  -1  -6 943.934 262.476   1
  -9  -1  -7-88.6910 108.563   4
  -9  -1  -7-137.847 156.812   1
  -9  -1  -8 138.029 115.145   4
  -9  -1  -8 280.509 144.339   1
  -9  -1  -9 1571.27 343.247   1
  -9  -1  -9 1217.75 311.940   4
  -9  -1 -10 891.981 319.098   4
  -9  -2   1-8.71957 151.517   1
  -9  -2   0-159.830 145.234   1
  -9  -2  -1-145.412 150.887   1
  -9  -2  -2 121.444 133.788   1
  -9  -2  -3-62.5202 111.255   1
  -9  -2  -4 364.903 174.288   1
  -9  -2  -5-207.058 197.459   1
  -9  -2  -6-9.07436 125.238   1
  -9  -2  -7 257.127 154.776   4
  -9  -2  -7 105.676 100.762   1
  -9  -2  -8-72.9467 108.287   4
  -9  -2  -8 366.872 189.235   1
  -9  -2  -9-60.9872 115.067   4
  -9  -2  -9-166.117 137.231   1
  -9  -2 -10-327.751 171.596   1
   9   2  11-1.45221 178.233   3
  -9  -3   0 947.358 322.453   1
  -9  -3  -1 497.086 217.774   1
  -9  -3  -2 629.107 230.983   1
  -9  -3  -3 426.693 191.675   1
  -9  -3  -4 1259.23 315.081   1
  -9  -3  -5 108.111 130.964   1
  -9  -3  -6 1373.63 317.305   1
  -9  -3  -7 205.779 149.901   1
  -9  -3  -8 277.322 120.077   1
  -9  -3  -9-50.5662 93.4108   1
  -9  -3 -10 134.937 132.672   1
   9   3  10-341.269 178.458   3
  -9  -3 -11 256.029 171.052   1
   9   3  11 133.977 186.420   3
  -9  -4  -2 667.885 248.920   1
  -9  -4  -3 1355.64 316.021   1
  -9  -4  -4 3148.45 492.656   1
  -9  -4  -5-10.7700 158.292   1
  -9  -4  -6-207.220 188.924   1
  -9  -4  -7 391.824 181.856   1
  -9  -4  -8 2086.90 384.260   1
  -9  -4  -9 182.126 148.132   1
  -9  -4 -10 293.955 177.105   1
  -9  -4 -11 161.430 123.475   1
  -9  -5  -4 439.052 211.381   1
  -9  -5  -5 1181.76 306.564   1
  -9  -5  -6 1462.99 334.498   1
  -9  -5  -7 148.227 110.609   1
  -9  -5  -8 2194.03 406.662   1
  -9  -5  -9 292.069 126.363   1
  -9  -5 -10 774.944 252.960   1
  -9  -5 -11 125.805 102.495   1
  -9  -6  -7 604.887 222.361   1
  -9  -6  -8 313.947 211.361   1
  -9  -6  -9 324.592 202.959   1
  -9  -6 -10 370.956 202.951   1
 -10   3  -2 35.9997 117.107   4
 -10   3  -3 32.4417 141.568   4
 -10   3  -4 233.996 186.775   4
 -10   3  -5 47.3771 159.877   4
 -10   2  -4 80.1979 135.703   4
 -10   2  -5 162.712 181.762   4
 -10   2  -6 335.636 213.635   4
 -10   2  -7 362.332 265.623   4
 -10   1  -6 50.7447 148.248   4
 -10   1  -7 108.633 158.341   4
 -10   1  -8 5.57385 194.739   4
   0   0   0    0.00    0.00   0

TITL bmk1810 in P-1
REM P-1 (#2 in standard setting)
CELL 0.71073   7.889030   9.366687   9.630040  64.8198  65.8940  84.5675
ZERR    2.00   0.002072   0.002897   0.003005   0.0302   0.0275   0.0233
LATT  1
SFAC C H N O S
UNIT 24.00 24.00 2.00 2.00 2.00
TREF
HKLF 4
END
;
loop_
_space_group_symop_operation_xyz
'x, y, z'
'-x, -y, -z'
loop_
_atom_site_label
_atom_site_type_symbol
_atom_site_fract_x
_atom_site_fract_y
_atom_site_fract_z
_atom_site_U_iso_or_equiv
_atom_site_adp_type
_atom_site_occupancy
_atom_site_site_symmetry_order
_atom_site_calc_flag
_atom_site_refinement_flags_posn
_atom_site_refinement_flags_adp
_atom_site_refinement_flags_occupancy
_atom_site_disorder_assembly
_atom_site_disorder_group
C1 C 0.7167(3) 0.4546(2) 0.1053(2) 0.0387(5) Uani 1 1 d . . . . .
C2 C 0.7811(3) 0.6093(2) 0.0173(3) 0.0449(5) Uani 1 1 d . . . . .
H2 H 0.812869 0.669848 -0.096930 0.054 Uiso 1 1 calc R U . . .
C3 C 0.7914(3) 0.6626(2) 0.1329(3) 0.0439(5) Uani 1 1 d . . . . .
C4 C 0.7340(3) 0.5311(2) 0.2863(3) 0.0440(5) Uani 1 1 d . . . . .
C5 C 0.8414(3) 0.8062(3) 0.1244(3) 0.0580(6) Uani 1 1 d . . . . .
H5 H 0.877663 0.897509 0.024004 0.070 Uiso 1 1 calc R U . . .
C6 C 0.8360(4) 0.8100(3) 0.2663(3) 0.0651(7) Uani 1 1 d . . . . .
H6 H 0.868499 0.905174 0.262007 0.078 Uiso 1 1 calc R U . . .
C7 C 0.7829(4) 0.6746(3) 0.4167(3) 0.0650(7) Uani 1 1 d . . . . .
H7 H 0.782576 0.680421 0.510821 0.078 Uiso 1 1 calc R U . . .
C8 C 0.7308(4) 0.5317(3) 0.4298(3) 0.0589(6) Uani 1 1 d . . . . .
H8 H 0.695336 0.440544 0.530254 0.071 Uiso 1 1 calc R U . . .
C9 C 0.6685(3) 0.3437(2) 0.0555(2) 0.0396(5) Uani 1 1 d . . . . .
C10 C 0.7293(3) 0.3932(3) -0.1288(3) 0.0501(6) Uani 1 1 d . . . . .
H10A H 0.812811 0.321111 -0.162336 0.075 Uiso 1 1 calc R U . . .
H10B H 0.791963 0.498338 -0.190549 0.075 Uiso 1 1 calc R U . . .
H10C H 0.622072 0.391886 -0.151791 0.075 Uiso 1 1 calc R U . . .
C11 C 0.4016(3) -0.0192(3) 0.2438(3) 0.0479(5) Uani 1 1 d . . . . .
C12 C 0.3304(3) -0.0472(3) 0.4254(3) 0.0493(6) Uani 1 1 d . . . . .
H12A H 0.416858 -0.105958 0.472259 0.059 Uiso 1 1 calc R U . . .
H12B H 0.323567 0.053889 0.431865 0.059 Uiso 1 1 calc R U . . .
C13 C 0.1466(3) -0.1354(3) 0.5233(3) 0.0491(5) Uani 1 1 d . . . . .
N1 N 0.5726(2) 0.2129(2) 0.1754(2) 0.0429(4) Uani 1 1 d . . . . .
N2 N 0.5219(2) 0.1096(2) 0.1275(2) 0.0476(5) Uani 1 1 d . . . . .
H2A H 0.567300 0.127720 0.023090 0.057 Uiso 1 1 calc R U . . .
N3 N 0.0018(3) -0.2013(3) 0.5998(3) 0.0668(6) Uani 1 1 d . . . . .
O1 O 0.6848(2) 0.40289(16) 0.27184(17) 0.0471(4) Uani 1 1 d . . . . .
O2 O 0.3525(3) -0.1108(2) 0.2042(2) 0.0701(6) Uani 1 1 d . . . . .
loop_
_atom_site_aniso_label
_atom_site_aniso_U_11
_atom_site_aniso_U_22
_atom_site_aniso_U_33
_atom_site_aniso_U_23
_atom_site_aniso_U_13
_atom_site_aniso_U_12
C1 0.0382(10) 0.0381(11) 0.0354(10) -0.0131(8) -0.0121(8) -0.0025(8)
C2 0.0480(11) 0.0407(12) 0.0388(11) -0.0122(9) -0.0137(9) -0.0070(9)
C3 0.0418(11) 0.0388(11) 0.0479(12) -0.0185(9) -0.0140(9) -0.0026(9)
C4 0.0488(11) 0.0378(11) 0.0448(12) -0.0179(9) -0.0165(9) -0.0041(9)
C5 0.0695(15) 0.0397(12) 0.0575(14) -0.0176(11) -0.0191(12) -0.0102(11)
C6 0.0762(17) 0.0525(15) 0.0725(17) -0.0365(14) -0.0218(13) -0.0104(13)
C7 0.0776(17) 0.0678(17) 0.0593(15) -0.0383(14) -0.0226(13) -0.0052(14)
C8 0.0781(16) 0.0535(14) 0.0445(13) -0.0192(11) -0.0229(11) -0.0089(12)
C9 0.0383(10) 0.0391(11) 0.0391(11) -0.0163(9) -0.0130(8) -0.0007(9)
C10 0.0547(13) 0.0508(13) 0.0406(12) -0.0194(10) -0.0126(9) -0.0090(10)
C11 0.0548(12) 0.0439(12) 0.0435(12) -0.0189(10) -0.0157(10) -0.0088(10)
C12 0.0572(13) 0.0448(12) 0.0424(12) -0.0164(10) -0.0161(9) -0.0102(10)
C13 0.0600(13) 0.0402(12) 0.0402(11) -0.0113(9) -0.0183(10) -0.0041(11)
N1 0.0503(10) 0.0373(9) 0.0421(10) -0.0175(8) -0.0173(8) -0.0043(8)
N2 0.0579(11) 0.0436(10) 0.0379(9) -0.0175(8) -0.0127(8) -0.0122(8)
N3 0.0627(13) 0.0628(14) 0.0540(13) -0.0098(11) -0.0163(10) -0.0130(11)
O1 0.0627(9) 0.0364(8) 0.0395(8) -0.0124(6) -0.0195(7) -0.0081(7)
O2 0.0887(12) 0.0646(11) 0.0510(10) -0.0295(9) -0.0093(8) -0.0337(9)
loop_
_atom_type_symbol
_atom_type_description
_atom_type_scat_dispersion_real
_atom_type_scat_dispersion_imag
_atom_type_scat_source
C C 0.0033 0.0016 'International Tables Vol C Tables 4.2.6.8 and 6.1.1.4'
H H 0.0000 0.0000 'International Tables Vol C Tables 4.2.6.8 and 6.1.1.4'
N N 0.0061 0.0033 'International Tables Vol C Tables 4.2.6.8 and 6.1.1.4'
O O 0.0106 0.0060 'International Tables Vol C Tables 4.2.6.8 and 6.1.1.4'
loop_
_geom_angle_atom_site_label_1
_geom_angle_atom_site_label_2
_geom_angle_atom_site_label_3
_geom_angle
_geom_angle_site_symmetry_1
_geom_angle_site_symmetry_3
C2 C1 O1 110.93(17) . .
C2 C1 C9 130.97(19) . .
O1 C1 C9 117.99(17) . .
C1 C2 C3 107.01(19) . .
C1 C2 H2 126.5 . .
C3 C2 H2 126.5 . .
C4 C3 C5 118.4(2) . .
C4 C3 C2 105.63(17) . .
C5 C3 C2 136.0(2) . .
O1 C4 C8 126.05(19) . .
O1 C4 C3 110.23(17) . .
C8 C4 C3 123.71(19) . .
C6 C5 C3 118.8(2) . .
C6 C5 H5 120.6 . .
C3 C5 H5 120.6 . .
C5 C6 C7 121.2(2) . .
C5 C6 H6 119.4 . .
C7 C6 H6 119.4 . .
C8 C7 C6 121.5(2) . .
C8 C7 H7 119.3 . .
C6 C7 H7 119.3 . .
C4 C8 C7 116.4(2) . .
C4 C8 H8 121.8 . .
C7 C8 H8 121.8 . .
N1 C9 C1 116.44(18) . .
N1 C9 C10 126.22(18) . .
C1 C9 C10 117.31(17) . .
C9 C10 H10A 109.5 . .
C9 C10 H10B 109.5 . .
H10A C10 H10B 109.5 . .
C9 C10 H10C 109.5 . .
H10A C10 H10C 109.5 . .
H10B C10 H10C 109.5 . .
O2 C11 N2 121.3(2) . .
O2 C11 C12 121.15(19) . .
N2 C11 C12 117.55(17) . .
C13 C12 C11 111.03(18) . .
C13 C12 H12A 109.4 . .
C11 C12 H12A 109.4 . .
C13 C12 H12B 109.4 . .
C11 C12 H12B 109.4 . .
H12A C12 H12B 108.0 . .
N3 C13 C12 178.6(3) . .
C9 N1 N2 116.27(17) . .
C11 N2 N1 120.13(17) . .
C11 N2 H2A 119.9 . .
N1 N2 H2A 119.9 . .
C4 O1 C1 106.18(15) . .
loop_
_geom_bond_atom_site_label_1
_geom_bond_atom_site_label_2
_geom_bond_distance
_geom_bond_site_symmetry_2
C1 C2 1.349(3) .
C1 O1 1.379(2) .
C1 C9 1.450(3) .
C2 C3 1.433(3) .
C2 H2 0.9300 .
C3 C4 1.384(3) .
C3 C5 1.397(3) .
C4 O1 1.373(2) .
C4 C8 1.374(3) .
C5 C6 1.365(3) .
C5 H5 0.9300 .
C6 C7 1.388(4) .
C6 H6 0.9300 .
C7 C8 1.376(3) .
C7 H7 0.9300 .
C8 H8 0.9300 .
C9 N1 1.291(3) .
C9 C10 1.497(3) .
C10 H10A 0.9600 .
C10 H10B 0.9600 .
C10 H10C 0.9600 .
C11 O2 1.222(2) .
C11 N2 1.345(3) .
C11 C12 1.509(3) .
C12 C13 1.457(3) .
C12 H12A 0.9700 .
C12 H12B 0.9700 .
C13 N3 1.135(3) .
N1 N2 1.384(2) .
N2 H2A 0.8600 .
loop_
_geom_hbond_atom_site_label_D
_geom_hbond_atom_site_label_H
_geom_hbond_atom_site_label_A
_geom_hbond_distance_DH
_geom_hbond_distance_HA
_geom_hbond_distance_DA
_geom_hbond_angle_DHA
_geom_hbond_site_symmetry_A
_geom_hbond_publ_flag
N2 H2A O2 0.86 2.09 2.927(3) 164.9 2_655 yes
loop_
_geom_torsion_atom_site_label_1
_geom_torsion_atom_site_label_2
_geom_torsion_atom_site_label_3
_geom_torsion_atom_site_label_4
_geom_torsion
_geom_torsion_site_symmetry_1
_geom_torsion_site_symmetry_2
_geom_torsion_site_symmetry_3
_geom_torsion_site_symmetry_4
N2 C11 C12 C13 152.4(2) . . . .
