#------------------------------------------------------------------------------
#$Date: 2022-07-01 10:17:37 +0300 (Fri, 01 Jul 2022) $
#$Revision: 276475 $
#$URL: file:///home/coder/svn-repositories/cod/cif/8/10/56/8105604.cif $
#------------------------------------------------------------------------------
#
# This file is available in the Crystallography Open Database (COD),
# http://www.crystallography.net/
#
# All data on this site have been placed in the public domain by the
# contributors.
#
data_8105604
loop_
_publ_author_name
'Wang, Bei-Bei'
'Zang, Chuan-Yi'
'Zhang, Ling'
'Wu, Wei-Na'
_publ_section_title
;
 Crystal structure of 3-methyl-2-oxo-2H-chromen-7-yl propionate, C13H12O4
;
_journal_issue                   2
_journal_name_full
'Zeitschrift f\"ur Kristallographie - New Crystal Structures'
_journal_page_first              243
_journal_page_last               244
_journal_paper_doi               10.1515/ncrs-2018-0281
_journal_volume                  234
_journal_year                    2019
_chemical_formula_sum            'C13 H12 O4'
_chemical_formula_weight         232.23
_space_group_crystal_system      triclinic
_space_group_IT_number           2
_space_group_name_Hall           '-P 1'
_space_group_name_H-M_alt        'P -1'
_atom_sites_solution_hydrogens   geom
_audit_creation_method           SHELXL-2017/1
_cell_angle_alpha                79.257(12)
_cell_angle_beta                 76.820(12)
_cell_angle_gamma                74.687(11)
_cell_formula_units_Z            2
_cell_length_a                   6.141(5)
_cell_length_b                   8.108(6)
_cell_length_c                   12.234(9)
_cell_measurement_reflns_used    1273
_cell_measurement_temperature    296(2)
_cell_measurement_theta_max      21.33
_cell_measurement_theta_min      2.18
_cell_volume                     566.9(8)
_computing_cell_refinement       'Bruker SAINT'
_computing_data_collection       'Bruker APEX2'
_computing_data_reduction        'Bruker SAINT'
_computing_molecular_graphics    'Bruker SHELXTL'
_computing_publication_material  'Bruker SHELXTL'
_computing_structure_refinement  'SHELXL-2017/1 (Sheldrick, 2017)'
_computing_structure_solution    'SHELXS-97 (Sheldrick, 2008)'
_diffrn_ambient_temperature      296(2)
_diffrn_measured_fraction_theta_full 0.992
_diffrn_measured_fraction_theta_max 0.992
_diffrn_measurement_device_type  'Bruker APEX-II CCD'
_diffrn_measurement_method       '\f and \w scans'
_diffrn_radiation_type           MoK\a
_diffrn_radiation_wavelength     0.71073
_diffrn_reflns_av_R_equivalents  0.0106
_diffrn_reflns_av_unetI/netI     0.0190
_diffrn_reflns_Laue_measured_fraction_full 0.992
_diffrn_reflns_Laue_measured_fraction_max 0.992
_diffrn_reflns_limit_h_max       7
_diffrn_reflns_limit_h_min       -7
_diffrn_reflns_limit_k_max       8
_diffrn_reflns_limit_k_min       -9
_diffrn_reflns_limit_l_max       8
_diffrn_reflns_limit_l_min       -14
_diffrn_reflns_number            2893
_diffrn_reflns_point_group_measured_fraction_full 0.992
_diffrn_reflns_point_group_measured_fraction_max 0.992
_diffrn_reflns_theta_full        24.997
_diffrn_reflns_theta_max         24.997
_diffrn_reflns_theta_min         1.725
_exptl_absorpt_coefficient_mu    0.101
_exptl_absorpt_correction_T_max  0.991
_exptl_absorpt_correction_T_min  0.981
_exptl_absorpt_correction_type   multi-scan
_exptl_absorpt_process_details   sadabs
_exptl_crystal_colour            colorless
_exptl_crystal_density_diffrn    1.361
_exptl_crystal_description       rod
_exptl_crystal_F_000             244
_exptl_crystal_size_max          0.200
_exptl_crystal_size_mid          0.120
_exptl_crystal_size_min          0.080
_refine_diff_density_max         0.364
_refine_diff_density_min         -0.298
_refine_diff_density_rms         0.044
_refine_ls_extinction_coef       .
_refine_ls_extinction_method     none
_refine_ls_goodness_of_fit_ref   1.088
_refine_ls_hydrogen_treatment    constr
_refine_ls_matrix_type           full
_refine_ls_number_parameters     154
_refine_ls_number_reflns         1990
_refine_ls_number_restraints     0
_refine_ls_restrained_S_all      1.088
_refine_ls_R_factor_all          0.0627
_refine_ls_R_factor_gt           0.0515
_refine_ls_shift/su_max          0.000
_refine_ls_shift/su_mean         0.000
_refine_ls_structure_factor_coef Fsqd
_refine_ls_weighting_details
'w=1/[\s^2^(Fo^2^)+(0.0728P)^2^+0.1974P] where P=(Fo^2^+2Fc^2^)/3'
_refine_ls_weighting_scheme      calc
_refine_ls_wR_factor_gt          0.1469
_refine_ls_wR_factor_ref         0.1575
_reflns_Friedel_coverage         0.000
_reflns_Friedel_fraction_full    .
_reflns_Friedel_fraction_max     .
_reflns_number_gt                1556
_reflns_number_total             1990
_reflns_threshold_expression     'I > 2\s(I)'
_cod_data_source_file            suppl_ncrs-2018-0281_suppl.cif
_cod_data_source_block           1
_cod_original_cell_volume        566.8(7)
_cod_database_code               8105604
_shelx_shelxl_version_number     2017/1
_shelx_space_group_comment
; 
The symmetry employed for this shelxl refinement is uniquely defined 
by the following loop, which should always be used as a source of 
symmetry information in preference to the above space-group names. 
They are only intended as comments. 
;
_shelx_estimated_absorpt_t_min   0.980
_shelx_estimated_absorpt_t_max   0.992
_shelx_res_file
; 
TITL 1 in P-1 
    1.res 
    created by SHELXL-2017/1 at 16:27:37 on 30-Jul-2018 
CELL 0.71073   6.1407   8.1080  12.2337  79.257  76.820  74.687 
ZERR   2   0.0045   0.0061   0.0086   0.012   0.012   0.011 
LATT  1 
SFAC C H O 
UNIT 26 24 8 
TEMP 23.000 
omit -2 50 
size 0.20 0.12 0.08 
acta 
htab 
conf 
L.S. 20 
BOND $H 
FMAP 2 
PLAN 20 
  
WGHT    0.072800    0.197400 
FVAR       0.30034 
O1    3    0.250986    0.029799    0.856491    11.00000    0.09731    0.06451 = 
         0.07436    0.00475   -0.03355   -0.03222 
O2    3    0.049442   -0.120216    0.799576    11.00000    0.07842    0.05288 = 
         0.05591    0.00313   -0.01857   -0.02469 
O3    3    0.404068    0.361512    0.291284    11.00000    0.06611    0.10337 = 
         0.06234    0.01062   -0.00211   -0.02470 
O4    3    0.280524    0.220449    0.454304    11.00000    0.04633    0.05998 = 
         0.04968   -0.00084   -0.00633   -0.00895 
C1    1    0.421545   -0.254401    1.011240    11.00000    0.12468    0.08774 = 
         0.07612    0.00103   -0.04505   -0.01225 
AFIX  33 
H1A   2    0.444679   -0.357035    1.065020    11.00000   -1.50000 
H1B   2    0.561221   -0.251871    0.956954    11.00000   -1.50000 
H1C   2    0.379030   -0.154790    1.050098    11.00000   -1.50000 
AFIX   0 
C2    1    0.234030   -0.253631    0.951460    11.00000    0.09060    0.06270 = 
         0.05707    0.00338   -0.01484   -0.01421 
AFIX  23 
H2A   2    0.276733   -0.356084    0.913999    11.00000   -1.20000 
H2B   2    0.094638   -0.259054    1.007094    11.00000   -1.20000 
AFIX   0 
C3    1    0.186008   -0.099268    0.866383    11.00000    0.06129    0.05229 = 
         0.04813   -0.00539   -0.00400   -0.01214 
C4    1   -0.002069    0.009023    0.710671    11.00000    0.06179    0.04241 = 
         0.04780   -0.00601   -0.01202   -0.01623 
C5    1   -0.232222    0.079972    0.707627    11.00000    0.05671    0.05976 = 
         0.05578   -0.00917   -0.00274   -0.02371 
AFIX  43 
H5A   2   -0.345748    0.047562    0.766009    11.00000   -1.20000 
AFIX   0 
C6    1   -0.290199    0.198831    0.617144    11.00000    0.04519    0.06043 = 
         0.06532   -0.00991   -0.00999   -0.01282 
AFIX  43 
H6A   2   -0.444486    0.246220    0.614149    11.00000   -1.20000 
AFIX   0 
C7    1   -0.122191    0.249645    0.529839    11.00000    0.04652    0.04283 = 
         0.05102   -0.01177   -0.01146   -0.00930 
C8    1    0.106231    0.175098    0.537521    11.00000    0.04560    0.04279 = 
         0.04484   -0.01122   -0.00601   -0.00981 
C9    1    0.169124    0.053529    0.626139    11.00000    0.04840    0.04663 = 
         0.05155   -0.00761   -0.01186   -0.00729 
AFIX  43 
H9A   2    0.322999    0.003177    0.628561    11.00000   -1.20000 
AFIX   0 
C10   1   -0.167979    0.367961    0.430917    11.00000    0.05112    0.04648 = 
         0.06179   -0.00816   -0.01948   -0.00717 
AFIX  43 
H10A  2   -0.319884    0.416951    0.423622    11.00000   -1.20000 
AFIX   0 
C11   1    0.000340    0.410456    0.348602    11.00000    0.06313    0.04138 = 
         0.05161   -0.00861   -0.01707   -0.01072 
C12   1    0.237306    0.334317    0.358909    11.00000    0.05918    0.05479 = 
         0.04843   -0.00569   -0.00821   -0.01498 
C13   1   -0.039507    0.529144    0.242559    11.00000    0.09095    0.05729 = 
         0.05959    0.00141   -0.02395   -0.01563 
AFIX  33 
H13A  2    0.105616    0.540856    0.195891    11.00000   -1.50000 
H13B  2   -0.121520    0.482765    0.202191    11.00000   -1.50000 
H13C  2   -0.128268    0.640215    0.261331    11.00000   -1.50000 
  
AFIX   0 
HKLF 4 
  
  
  
  
REM  1 in P-1 
REM R1 =  0.0515 for    1556 Fo > 4sig(Fo)  and  0.0627 for all    1990 data 
REM    154 parameters refined using      0 restraints 
  
END 
  
WGHT      0.0725      0.1983 
  
REM Instructions for potential hydrogen bonds 
EQIV $1 x-1, y, z 
HTAB C5 O1_$1 
  
REM Highest difference peak  0.364,  deepest hole -0.298,  1-sigma level  0.044 
Q1    1   0.0456  0.4538  0.1742  11.00000  0.05    0.36 
Q2    1  -0.2258  0.5671  0.2420  11.00000  0.05    0.31 
Q3    1   0.0347  0.6383  0.2364  11.00000  0.05    0.30 
Q4    1   0.1464 -0.3608  0.9618  11.00000  0.05    0.12 
Q5    1  -0.0765  0.4470  0.4015  11.00000  0.05    0.12 
Q6    1   0.4653 -0.1208  1.0217  11.00000  0.05    0.12 
Q7    1   0.1962 -0.1558  1.1063  11.00000  0.05    0.11 
Q8    1   0.2602  0.3823  0.1643  11.00000  0.05    0.10 
Q9    1   0.3155  0.3191  0.2600  11.00000  0.05    0.10 
Q10   1   0.1433  0.1705  0.6000  11.00000  0.05    0.09 
Q11   1  -0.0086  0.1875  0.5195  11.00000  0.05    0.09 
Q12   1  -0.0719  0.3394  0.3606  11.00000  0.05    0.09 
Q13   1   0.4661 -0.3872  0.8994  11.00000  0.05    0.09 
Q14   1  -0.1500  0.2653  0.4647  11.00000  0.05    0.09 
Q15   1   0.1184  0.0238  0.9026  11.00000  0.05    0.09 
Q16   1  -0.2471  0.1905  0.6782  11.00000  0.05    0.09 
Q17   1   0.6425 -0.3590  0.9212  11.00000  0.05    0.09 
Q18   1   0.1302  0.0618  0.5615  11.00000  0.05    0.09 
Q19   1   0.0706 -0.2419  0.7446  11.00000  0.05    0.08 
Q20   1   0.2297 -0.1294  1.0836  11.00000  0.05    0.08 
;
_shelx_hkl_file
; 
   1   0   0  187.90    2.05 
  -2   0   0   39.16    0.48 
   2   0   0   38.25    0.47 
  -3   0   0    1.26    0.05 
   3   0   0    1.17    0.06 
  -4   0   0    8.54    0.18 
   4   0   0    8.46    0.19 
  -5   0   0    1.24    0.07 
   5   0   0    1.19    0.08 
   6   0   0    0.11    0.04 
   7   0   0    1.00    0.10 
   7  -1   0    0.20    0.06 
   6  -1   0   -0.03    0.03 
   5  -1   0    0.00    0.02 
  -5   1   0   -0.01    0.02 
   4  -1   0    3.12    0.11 
  -4   1   0    3.29    0.11 
   3  -1   0    3.64    0.10 
  -3   1   0    3.47    0.10 
   2  -1   0   84.04    0.94 
  -2   1   0   85.59    1.00 
   1  -1   0    0.03    0.01 
  -1   1   0    0.02    0.01 
   0  -1   0   76.62    0.83 
   1   1   0   62.00    0.69 
   2   1   0    7.72    0.14 
  -3  -1   0    0.13    0.02 
   3   1   0    0.15    0.03 
  -4  -1   0    1.17    0.06 
   4   1   0    1.09    0.07 
   5   1   0    1.02    0.07 
   6   1   0    0.06    0.04 
   7   1   0    0.39    0.07 
   7  -2   0   -0.02    0.04 
   6  -2   0    0.14    0.04 
  -6   2   0    0.06    0.04 
   5  -2   0    0.34    0.05 
  -5   2   0    0.35    0.05 
   4  -2   0    0.94    0.06 
  -4   2   0    0.95    0.07 
   3  -2   0    0.61    0.04 
  -3   2   0    0.66    0.05 
   2  -2   0   33.25    0.41 
  -2   2   0   32.43    0.44 
   1  -2   0   17.70    0.23 
  -1   2   0   17.69    0.26 
   0  -2   0    7.14    0.10 
   0   2   0    6.95    0.12 
  -1  -2   0  130.74    1.41 
   2   2   0    1.04    0.05 
   3   2   0    6.22    0.14 
   4   2   0    3.92    0.12 
   5   2   0   21.12    0.37 
   6   2   0    6.55    0.20 
   7   2   0    0.31    0.07 
   6  -3   0   -0.03    0.03 
  -6   3   0   -0.03    0.03 
   5  -3   0    1.61    0.09 
  -5   3   0    1.58    0.10 
   4  -3   0    0.07    0.03 
  -4   3   0    0.04    0.03 
   3  -3   0    0.13    0.03 
  -3   3   0    0.15    0.03 
   2  -3   0    5.23    0.12 
  -2   3   0    5.37    0.14 
   1  -3   0    3.25    0.07 
  -1   3   0    3.26    0.09 
   0  -3   0   10.44    0.15 
   0   3   0   10.36    0.17 
  -1  -3   0   17.15    0.24 
  -2  -3   0    1.91    0.07 
  -3  -3   0   13.09    0.23 
   4   3   0    2.89    0.11 
   5   3   0   11.85    0.26 
   6   3   0    0.91    0.08 
   7   3   0    0.06    0.05 
  -6   4   0   -0.06    0.03 
   5  -4   0    0.87    0.08 
  -5   4   0    0.76    0.08 
   4  -4   0    0.03    0.03 
  -4   4   0    0.03    0.03 
   3  -4   0    0.02    0.02 
  -3   4   0    0.00    0.02 
   2  -4   0    5.51    0.13 
  -2   4   0    5.57    0.15 
   1  -4   0    0.35    0.03 
  -1   4   0    0.37    0.04 
   0  -4   0    1.61    0.05 
   0   4   0    1.58    0.06 
  -1  -4   0    1.63    0.06 
  -2  -4   0    0.01    0.02 
  -3  -4   0    7.58    0.17 
  -4  -4   0    4.72    0.14 
  -5  -4   0    1.88    0.10 
  -6  -4   0    0.00    0.03 
  -7  -4   0    0.21    0.05 
   5  -5   0    0.33    0.05 
  -5   5   0    0.28    0.06 
   4  -5   0    0.22    0.04 
  -4   5   0    0.17    0.05 
   3  -5   0    0.41    0.05 
  -3   5   0    0.40    0.06 
   2  -5   0    0.41    0.04 
  -2   5   0    0.35    0.05 
   1  -5   0    0.03    0.02 
  -1   5   0   -0.01    0.02 
   0  -5   0    6.19    0.13 
   0   5   0    6.60    0.15 
  -1  -5   0    0.01    0.02 
  -2  -5   0    2.81    0.09 
  -3  -5   0   13.75    0.25 
  -4  -5   0    0.11    0.03 
  -5  -5   0    0.48    0.06 
  -6  -5   0    0.01    0.03 
  -7  -5   0    0.00    0.04 
  -5   6   0   -0.02    0.04 
   4  -6   0    0.03    0.03 
  -4   6   0    0.01    0.04 
   3  -6   0    0.29    0.05 
  -3   6   0    0.27    0.05 
   2  -6   0    0.64    0.06 
  -2   6   0    0.56    0.07 
   1  -6   0    2.31    0.08 
  -1   6   0    2.16    0.10 
   0  -6   0    1.25    0.06 
   0   6   0    1.29    0.07 
  -1  -6   0    4.44    0.12 
  -2  -6   0    0.27    0.04 
  -3  -6   0    0.89    0.06 
  -4  -6   0    0.02    0.03 
  -5  -6   0    1.21    0.09 
  -6  -6   0    0.20    0.05 
  -4   7   0    0.04    0.05 
   3  -7   0    1.27    0.09 
  -3   7   0    1.39    0.10 
   2  -7   0   14.50    0.28 
  -2   7   0   14.52    0.33 
   1  -7   0   11.82    0.23 
  -1   7   0   11.81    0.27 
   0  -7   0    2.06    0.09 
   0   7   0    2.01    0.10 
  -1  -7   0    4.88    0.14 
  -2  -7   0    0.01    0.02 
  -3  -7   0    0.91    0.07 
  -4  -7   0    0.48    0.06 
  -5  -7   0    0.17    0.05 
  -6  -7   0    0.03    0.04 
  -3   8   0    0.02    0.04 
   2  -8   0    1.61    0.10 
  -2   8   0    1.30    0.10 
   1  -8   0    0.98    0.07 
  -1   8   0    0.97    0.08 
   0  -8   0    1.01    0.07 
  -1  -8   0    0.03    0.03 
  -2  -8   0    0.04    0.03 
  -3  -8   0    0.36    0.05 
  -4  -8   0    0.18    0.05 
  -5  -8   0    0.33    0.06 
  -2   9   0    0.34    0.07 
   1  -9   0   -0.01    0.03 
   0  -9   0    0.14    0.04 
  -1  -9   0    0.00    0.03 
  -2  -9   0    0.42    0.06 
  -3  -9   0    3.33    0.14 
  -4  -9   0    0.71    0.08 
   0 -10   0    0.03    0.04 
  -1 -10   0    0.07    0.04 
  -2 -10   0    0.86    0.08 
  -3 -10   0    4.14    0.16 
  -2 -10   1   -0.01    0.03 
  -1 -10   1    0.93    0.08 
   0 -10   1    0.36    0.06 
  -4  -9   1    0.89    0.09 
  -3  -9   1    2.45    0.12 
  -2  -9   1    0.91    0.08 
  -1  -9   1   -0.02    0.03 
   0  -9   1    0.00    0.03 
  -1   9  -1    0.03    0.05 
   1  -9   1    0.01    0.03 
  -2   9  -1    0.12    0.06 
  -5  -8   1    1.20    0.10 
  -4  -8   1    0.06    0.04 
  -3  -8   1    3.59    0.14 
  -2  -8   1    0.21    0.04 
  -1  -8   1    0.57    0.06 
   0  -8   1    0.08    0.03 
  -1   8  -1    0.63    0.07 
   1  -8   1    0.67    0.06 
  -2   8  -1    0.03    0.04 
   2  -8   1    0.06    0.03 
  -3   8  -1   -0.01    0.04 
  -6  -7   1    0.71    0.08 
  -5  -7   1    4.61    0.17 
  -4  -7   1    0.55    0.06 
  -3  -7   1    0.14    0.04 
  -2  -7   1    0.00    0.02 
  -1  -7   1    8.85    0.19 
   0   7  -1    1.05    0.08 
   0  -7   1    1.17    0.07 
  -1   7  -1    0.95    0.08 
   1  -7   1    0.94    0.06 
  -2   7  -1    9.28    0.25 
   2  -7   1    8.85    0.20 
  -3   7  -1    2.01    0.13 
  -4   7  -1   -0.01    0.04 
  -6  -6   1    0.02    0.03 
  -5  -6   1    0.16    0.05 
  -4  -6   1    0.84    0.07 
  -3  -6   1    0.68    0.06 
  -2  -6   1    0.22    0.04 
  -1  -6   1    1.41    0.07 
   0   6  -1    4.73    0.14 
   0  -6   1    4.87    0.12 
  -1   6  -1    0.16    0.04 
   1  -6   1    0.18    0.03 
  -2   6  -1    1.28    0.09 
   2  -6   1    1.40    0.07 
  -3   6  -1    0.33    0.06 
   3  -6   1    0.25    0.04 
  -4   6  -1   -0.02    0.04 
  -5   6  -1   -0.02    0.04 
  -7  -5   1    0.63    0.08 
  -6  -5   1    0.08    0.04 
  -5  -5   1    0.57    0.06 
  -4  -5   1    0.14    0.04 
  -3  -5   1   -0.03    0.02 
  -2  -5   1    0.02    0.02 
  -1  -5   1    5.00    0.12 
   0   5  -1   76.03    0.94 
   0  -5   1   75.92    0.87 
  -1   5  -1    8.51    0.20 
   1  -5   1    8.56    0.16 
  -2   5  -1    0.99    0.08 
   2  -5   1    1.04    0.06 
  -3   5  -1   -0.04    0.03 
   3  -5   1    0.00    0.02 
  -4   5  -1   -0.03    0.03 
   4  -5   1   -0.02    0.02 
  -5   5  -1   -0.01    0.04 
  -6   5  -1    0.17    0.06 
  -7  -4   1    0.55    0.07 
   6   4  -1    0.03    0.04 
  -6  -4   1    0.05    0.04 
  -5  -4   1    0.05    0.03 
  -4  -4   1    0.12    0.03 
  -3  -4   1    0.01    0.02 
  -2  -4   1    5.53    0.13 
   1   4  -1    9.27    0.20 
   1   4  -1    9.52    0.16 
  -1  -4   1    9.49    0.16 
   0   4  -1    0.28    0.03 
   0   4  -1    0.29    0.03 
   0  -4   1    0.28    0.03 
  -1   4  -1    0.55    0.04 
  -1   4  -1    0.49    0.04 
   1  -4   1    0.57    0.04 
  -2   4  -1    1.32    0.07 
   2  -4   1    1.34    0.06 
  -3   4  -1    0.37    0.05 
   3  -4   1    0.55    0.05 
  -4   4  -1    0.05    0.03 
   4  -4   1    0.02    0.03 
  -5   4  -1    0.69    0.08 
   5  -4   1    0.69    0.07 
  -6   4  -1    0.19    0.06 
   7   3  -1    0.23    0.06 
   6   3  -1    0.27    0.05 
   5   3  -1    4.19    0.15 
   4   3  -1    1.25    0.08 
   3   3  -1   81.39    0.97 
   2   3  -1   31.30    0.46 
  -2  -3   1   31.29    0.41 
   1   3  -1    7.69    0.16 
  -1  -3   1    7.87    0.14 
   0   3  -1    3.33    0.08 
   0   3  -1    3.31    0.09 
   0  -3   1    3.47    0.07 
  -1   3  -1    6.67    0.12 
  -1   3  -1    6.43    0.14 
   1  -3   1    6.39    0.11 
  -2   3  -1    0.13    0.03 
   2  -3   1    0.18    0.02 
  -3   3  -1    4.85    0.14 
   3  -3   1    4.74    0.12 
  -4   3  -1    0.08    0.03 
   4  -3   1    0.06    0.03 
  -5   3  -1    0.71    0.07 
   5  -3   1    0.82    0.07 
  -6   3  -1    0.43    0.06 
   7   2  -1    0.13    0.05 
   6   2  -1    0.07    0.04 
   5   2  -1   19.83    0.36 
   4   2  -1    0.80    0.06 
   3   2  -1    9.82    0.19 
   2   2  -1   18.76    0.30 
   2   2  -1   19.30    0.27 
   1   2  -1    5.91    0.12 
  -1  -2   1    6.14    0.11 
   0   2  -1   11.35    0.17 
   0   2  -1   11.18    0.17 
   0  -2   1   11.17    0.15 
  -1   2  -1   80.03    0.94 
   1  -2   1   79.33    0.86 
  -2   2  -1   18.03    0.29 
   2  -2   1   18.09    0.25 
  -3   2  -1    2.28    0.09 
   3  -2   1    2.12    0.08 
  -4   2  -1    0.18    0.04 
   4  -2   1    0.19    0.03 
  -5   2  -1    1.34    0.09 
   5  -2   1    1.51    0.09 
  -6   2  -1    0.07    0.04 
   6  -2   1    0.08    0.04 
   7   1  -1    0.31    0.07 
   6   1  -1   -0.01    0.03 
   5   1  -1   12.32    0.27 
   4   1  -1    3.88    0.13 
  -4  -1   1    3.93    0.10 
   3   1  -1    1.33    0.06 
  -3  -1   1    1.40    0.05 
   2   1  -1    1.31    0.06 
   2   1  -1    1.35    0.05 
   1   1  -1   12.90    0.17 
   1   1  -1   12.51    0.19 
   0  -1   1   87.71    0.96 
  -1   1  -1    0.70    0.03 
   1  -1   1    0.72    0.02 
  -2   1  -1    7.84    0.15 
   2  -1   1    7.87    0.13 
  -3   1  -1    5.88    0.14 
  -3   1  -1    5.93    0.11 
   3  -1   1    6.06    0.13 
  -4   1  -1   -0.01    0.02 
   4  -1   1    0.02    0.02 
  -5   1  -1    0.25    0.04 
   5  -1   1    0.33    0.05 
  -6   1  -1    0.02    0.03 
   6  -1   1    0.00    0.03 
   7   0  -1    3.55    0.17 
   6   0  -1    0.39    0.06 
   5   0  -1    3.59    0.14 
   4   0  -1    0.06    0.03 
  -4   0   1    0.04    0.02 
   3   0  -1    1.22    0.06 
  -3   0   1    1.24    0.05 
   2   0  -1   35.48    0.44 
  -2   0   1   35.91    0.44 
   1   0  -1   55.01    0.62 
   0   0  -1  115.97    1.44 
   1   0   1   47.51    0.53 
  -2   0  -1  164.67    1.85 
   2   0   1  163.15    1.76 
  -3   0  -1    1.57    0.07 
   3   0   1    1.48    0.06 
  -4   0  -1    2.30    0.09 
   4   0   1    2.15    0.09 
  -5   0  -1    0.96    0.06 
   5   0   1    0.95    0.07 
   6   0   1    0.11    0.04 
   7   0   1    0.01    0.04 
   7  -1  -1    0.01    0.04 
   6  -1  -1   -0.01    0.03 
   5  -1  -1    1.52    0.09 
  -5   1   1    1.53    0.08 
   4  -1  -1    0.87    0.06 
  -4   1   1    1.02    0.06 
   3  -1  -1    0.61    0.04 
  -3   1   1    0.64    0.04 
   2  -1  -1    0.64    0.04 
  -2   1   1    0.56    0.04 
   1  -1  -1  115.07    1.24 
  -1   1   1  115.18    1.30 
   0  -1  -1    9.29    0.12 
  -1  -1  -1  129.35    1.39 
   2   1   1   16.34    0.23 
   3   1   1    0.78    0.05 
  -4  -1  -1    0.06    0.02 
   4   1   1    0.08    0.03 
  -5  -1  -1    1.04    0.07 
   5   1   1    1.09    0.07 
   6   1   1    0.60    0.07 
   7   1   1    0.12    0.05 
   7  -2  -1    0.01    0.04 
   6  -2  -1    0.10    0.04 
   5  -2  -1    0.26    0.05 
  -5   2   1    0.19    0.04 
   4  -2  -1    0.10    0.03 
  -4   2   1    0.08    0.03 
   3  -2  -1    0.54    0.04 
  -3   2   1    0.61    0.05 
   2  -2  -1  114.82    1.27 
  -2   2   1  114.31    1.33 
   1  -2  -1   93.86    1.02 
  -1   2   1   94.33    1.09 
   0  -2  -1  138.67    1.48 
   0   2   1  139.88    1.56 
  -1  -2  -1   64.04    0.71 
  -2  -2  -1   13.33    0.20 
   3   2   1    0.96    0.05 
   4   2   1    0.37    0.04 
  -5  -2  -1    4.26    0.13 
   5   2   1    4.40    0.14 
   6   2   1    2.29    0.12 
   7   2   1    2.78    0.14 
   6  -3  -1    0.03    0.04 
   5  -3  -1    0.04    0.03 
  -5   3   1   -0.03    0.03 
   4  -3  -1    0.97    0.07 
  -4   3   1    0.94    0.07 
   3  -3  -1    0.20    0.03 
  -3   3   1    0.23    0.04 
   2  -3  -1   37.87    0.48 
  -2   3   1   38.18    0.52 
   1  -3  -1    0.06    0.02 
  -1   3   1    0.04    0.02 
   0  -3  -1    0.28    0.02 
   0   3   1    0.28    0.03 
  -1  -3  -1   27.02    0.34 
  -2  -3  -1   19.11    0.27 
  -3  -3  -1    1.21    0.06 
  -4  -3  -1    1.23    0.07 
   4   3   1    1.24    0.07 
   5   3   1   20.35    0.36 
   6   3   1    5.20    0.18 
   7   3   1    0.27    0.06 
   6  -4  -1    0.05    0.04 
  -6   4   1    0.07    0.04 
   5  -4  -1    0.68    0.07 
  -5   4   1    0.62    0.07 
   4  -4  -1    2.43    0.11 
  -4   4   1    2.36    0.11 
   3  -4  -1    0.06    0.03 
  -3   4   1    0.12    0.03 
   2  -4  -1    1.89    0.07 
  -2   4   1    1.91    0.09 
   1  -4  -1    0.97    0.05 
  -1   4   1    0.92    0.06 
   0  -4  -1    2.76    0.07 
   0   4   1    2.75    0.09 
  -1  -4  -1    0.11    0.02 
  -2  -4  -1   19.87    0.29 
  -3  -4  -1    6.41    0.15 
  -4  -4  -1    0.35    0.04 
  -5  -4  -1    4.04    0.14 
  -6  -4  -1    0.57    0.07 
  -7  -4  -1    0.20    0.05 
   5  -5  -1    0.49    0.06 
  -5   5   1    0.42    0.07 
   4  -5  -1    0.94    0.08 
  -4   5   1    0.90    0.08 
   3  -5  -1    0.54    0.05 
  -3   5   1    0.38    0.05 
   2  -5  -1    0.37    0.04 
  -2   5   1    0.29    0.05 
   1  -5  -1    0.18    0.03 
  -1   5   1    0.19    0.03 
   0  -5  -1    0.77    0.05 
   0   5   1    0.73    0.05 
  -1  -5  -1    0.18    0.03 
  -2  -5  -1    4.74    0.12 
  -3  -5  -1   18.93    0.31 
  -4  -5  -1    2.37    0.10 
  -5  -5  -1    0.94    0.07 
  -6  -5  -1    0.32    0.06 
  -7  -5  -1    0.16    0.05 
   5  -6  -1    0.03    0.04 
  -5   6   1   -0.02    0.04 
   4  -6  -1    0.18    0.05 
  -4   6   1    0.09    0.05 
   3  -6  -1   -0.03    0.02 
  -3   6   1   -0.02    0.03 
   2  -6  -1    0.00    0.02 
  -2   6   1   -0.03    0.03 
   1  -6  -1    2.63    0.09 
  -1   6   1    2.81    0.12 
   0  -6  -1    0.45    0.04 
  -1  -6  -1    0.80    0.05 
  -2  -6  -1    0.64    0.05 
  -3  -6  -1    0.54    0.05 
  -4  -6  -1    2.11    0.10 
  -5  -6  -1    0.18    0.05 
  -6  -6  -1   -0.01    0.03 
  -7  -6  -1    0.03    0.04 
   4  -7  -1    0.03    0.04 
  -4   7   1   -0.02    0.04 
   3  -7  -1    0.18    0.05 
  -3   7   1    0.13    0.05 
   2  -7  -1    1.82    0.09 
  -2   7   1    1.74    0.11 
   1  -7  -1    0.25    0.04 
  -1   7   1    0.20    0.05 
   0  -7  -1   16.98    0.29 
  -1  -7  -1    5.50    0.14 
  -2  -7  -1    0.07    0.03 
  -3  -7  -1    1.14    0.07 
  -4  -7  -1    1.62    0.09 
  -5  -7  -1    0.07    0.04 
  -6  -7  -1    0.02    0.03 
   3  -8  -1    0.23    0.06 
  -3   8   1    0.23    0.07 
   2  -8  -1    1.07    0.08 
  -2   8   1    1.18    0.10 
   1  -8  -1    0.13    0.04 
   0  -8  -1    1.45    0.08 
  -1  -8  -1    0.01    0.03 
  -2  -8  -1    0.49    0.06 
  -3  -8  -1   -0.03    0.02 
  -4  -8  -1    0.56    0.06 
  -5  -8  -1    0.05    0.04 
   2  -9  -1    1.57    0.11 
   1  -9  -1    2.40    0.12 
   0  -9  -1    0.29    0.05 
  -1  -9  -1    0.21    0.05 
  -2  -9  -1   -0.04    0.03 
  -3  -9  -1    0.03    0.03 
  -4  -9  -1    0.03    0.04 
  -5  -9  -1    0.76    0.08 
   0 -10  -1    0.16    0.05 
  -1 -10  -1   -0.01    0.03 
  -2 -10  -1    0.15    0.05 
  -3 -10  -1    0.68    0.08 
  -2 -10   2   -0.04    0.03 
  -1 -10   2    0.53    0.07 
  -4  -9   2    0.03    0.04 
  -3  -9   2    0.32    0.06 
  -2  -9   2    0.03    0.04 
  -1  -9   2    0.12    0.04 
   0  -9   2    0.71    0.07 
  -1   9  -2    0.02    0.04 
  -2   9  -2    0.01    0.05 
  -5  -8   2    0.02    0.04 
  -4  -8   2    0.23    0.05 
  -3  -8   2    7.20    0.20 
  -2  -8   2    4.60    0.15 
  -1  -8   2    0.48    0.05 
   0   8  -2    0.10    0.04 
   0  -8   2    0.04    0.03 
  -1   8  -2    0.58    0.07 
   1  -8   2    0.59    0.06 
  -2   8  -2   -0.03    0.04 
  -3   8  -2    0.04    0.05 
  -5  -7   2    1.12    0.09 
  -4  -7   2    0.04    0.04 
  -3  -7   2    1.66    0.09 
  -2  -7   2    0.23    0.04 
  -1  -7   2    0.58    0.05 
   0   7  -2    1.46    0.09 
   0  -7   2    1.47    0.07 
  -1   7  -2    0.39    0.06 
   1  -7   2    0.36    0.04 
  -2   7  -2    2.40    0.13 
  -3   7  -2    0.40    0.07 
  -4   7  -2    0.78    0.09 
  -6  -6   2    0.18    0.05 
  -5  -6   2    0.73    0.08 
  -4  -6   2    1.65    0.10 
  -3  -6   2    0.22    0.04 
  -2  -6   2    1.17    0.07 
   1   6  -2    0.00    0.03 
   1   6  -2    0.03    0.02 
  -1  -6   2    0.01    0.02 
   0   6  -2    9.24    0.22 
   0   6  -2    9.24    0.20 
   0  -6   2    9.40    0.18 
  -1   6  -2    0.16    0.04 
   1  -6   2    0.29    0.03 
  -2   6  -2    0.96    0.08 
   2  -6   2    0.88    0.06 
  -3   6  -2    0.71    0.08 
  -4   6  -2   -0.05    0.03 
  -5   6  -2    0.07    0.05 
  -6  -5   2    0.06    0.04 
  -5  -5   2   -0.01    0.03 
  -4  -5   2    0.31    0.05 
  -3  -5   2    0.00    0.02 
   2   5  -2    4.64    0.16 
  -2  -5   2    4.12    0.12 
   1   5  -2    1.89    0.10 
   1   5  -2    1.96    0.07 
  -1  -5   2    1.91    0.07 
   0   5  -2   12.25    0.24 
   0   5  -2   12.49    0.23 
   0  -5   2   11.93    0.20 
  -1   5  -2    0.13    0.03 
  -1   5  -2    0.22    0.04 
   1  -5   2    0.12    0.02 
  -2   5  -2   22.98    0.40 
   2  -5   2   23.15    0.33 
  -3   5  -2   11.08    0.26 
   3  -5   2   10.98    0.21 
  -4   5  -2    0.03    0.04 
  -5   5  -2   -0.03    0.03 
  -6   5  -2    0.03    0.05 
   7   4  -2   -0.02    0.04 
   6   4  -2   -0.02    0.03 
   5   4  -2    0.50    0.06 
  -4  -4   2    0.44    0.05 
  -3  -4   2    2.40    0.09 
   2   4  -2    0.00    0.02 
  -2  -4   2    0.01    0.02 
   1   4  -2   -0.01    0.02 
   1   4  -2    0.00    0.01 
  -1  -4   2    0.00    0.01 
   0   4  -2   23.09    0.35 
   0   4  -2   23.27    0.34 
   0  -4   2   23.17    0.30 
  -1   4  -2    0.17    0.03 
  -1   4  -2    0.16    0.02 
   1  -4   2    0.15    0.02 
  -2   4  -2    0.08    0.03 
   2  -4   2    0.17    0.02 
  -3   4  -2    2.10    0.11 
   3  -4   2    2.14    0.08 
  -4   4  -2   -0.01    0.03 
   4  -4   2   -0.03    0.02 
  -5   4  -2    0.25    0.06 
  -6   4  -2   -0.03    0.04 
   7   3  -2    0.05    0.04 
   6   3  -2   -0.03    0.03 
   5   3  -2    0.40    0.06 
   4   3  -2    0.53    0.05 
   3   3  -2    7.02    0.19 
   3   3  -2    7.38    0.17 
   2   3  -2    2.00    0.09 
  -2  -3   2    2.01    0.07 
   1   3  -2    1.09    0.04 
   1   3  -2    1.11    0.06 
  -1  -3   2    1.06    0.05 
   0   3  -2   16.73    0.25 
   0   3  -2   17.22    0.26 
   0  -3   2   16.76    0.22 
  -1   3  -2   12.22    0.22 
  -1   3  -2   12.87    0.19 
   1  -3   2   12.63    0.18 
  -2   3  -2    0.63    0.03 
  -2   3  -2    0.55    0.05 
   2  -3   2    0.64    0.04 
  -3   3  -2    1.64    0.08 
   3  -3   2    1.59    0.07 
  -4   3  -2    0.62    0.06 
   4  -3   2    0.69    0.05 
  -5   3  -2    1.40    0.10 
  -6   3  -2    0.44    0.07 
   7   2  -2    0.01    0.04 
   6   2  -2    0.10    0.04 
   5   2  -2    0.59    0.07 
   4   2  -2    0.45    0.05 
   3   2  -2   23.58    0.35 
   3   2  -2   23.16    0.38 
   2   2  -2    3.47    0.09 
   2   2  -2    3.48    0.11 
   1   2  -2   18.72    0.28 
  -1  -2   2   19.34    0.25 
   0   2  -2   11.11    0.17 
   0   2  -2   11.17    0.17 
   0  -2   2   11.14    0.15 
  -1   2  -2   20.30    0.30 
  -1   2  -2   20.28    0.26 
  -2   2  -2    3.56    0.07 
  -2   2  -2    3.34    0.10 
   2  -2   2    3.65    0.08 
  -3   2  -2    0.27    0.04 
  -3   2  -2    0.26    0.02 
   3  -2   2    0.26    0.03 
  -4   2  -2    1.42    0.08 
   4  -2   2    1.39    0.07 
  -5   2  -2    3.48    0.14 
   5  -2   2    3.71    0.13 
  -6   2  -2    1.61    0.11 
   7   1  -2    0.00    0.05 
   6   1  -2    0.01    0.03 
   5   1  -2    6.95    0.20 
   4   1  -2   23.60    0.38 
   3   1  -2   11.15    0.21 
   3   1  -2   10.65    0.21 
  -3  -1   2   11.22    0.16 
   2   1  -2    1.20    0.05 
   2   1  -2    1.23    0.06 
   1   1  -2    1.22    0.04 
   1   1  -2    1.26    0.05 
   0   1  -2    0.07    0.01 
   0  -1   2    0.06    0.01 
  -1   1  -2    6.49    0.12 
  -1   1  -2    6.43    0.10 
   1  -1   2    6.62    0.09 
  -2   1  -2   18.95    0.29 
  -2   1  -2   18.93    0.25 
   2  -1   2   18.66    0.24 
  -3   1  -2   24.91    0.33 
  -3   1  -2   24.71    0.38 
   3  -1   2   24.70    0.34 
  -4   1  -2    1.31    0.08 
   4  -1   2    1.31    0.07 
  -5   1  -2    0.13    0.04 
   5  -1   2    0.11    0.03 
  -6   1  -2    0.13    0.04 
   6  -1   2    0.11    0.04 
   7   0  -2    0.76    0.10 
   6   0  -2   -0.04    0.03 
   5   0  -2   20.81    0.38 
   4   0  -2    8.52    0.20 
  -4   0   2    8.23    0.16 
   3   0  -2    0.08    0.02 
  -3   0   2    0.10    0.02 
   2   0  -2   17.09    0.25 
   2   0  -2   16.65    0.25 
  -2   0   2   16.87    0.22 
   1   0  -2  288.50    3.27 
   1   0  -2  285.81    3.11 
   0   0  -2    1.40    0.03 
  -1   0  -2   52.84    0.63 
   1   0   2   54.29    0.62 
  -2   0  -2   93.81    1.09 
   2   0   2   94.60    1.03 
  -3   0  -2  108.01    1.28 
  -3   0  -2  108.13    1.27 
   3   0   2  108.71    1.20 
  -4   0  -2    1.80    0.08 
  -4   0  -2    1.60    0.07 
   4   0   2    1.76    0.07 
  -5   0  -2    0.04    0.03 
   5   0   2    0.02    0.02 
  -6   0  -2    0.05    0.03 
   6   0   2    0.03    0.03 
   7  -1  -2    0.00    0.05 
   6  -1  -2    0.49    0.07 
   5  -1  -2    0.14    0.04 
   4  -1  -2    1.13    0.07 
  -4   1   2    1.19    0.06 
   3  -1  -2    1.87    0.08 
  -3   1   2    2.01    0.07 
   2  -1  -2    3.49    0.09 
   2  -1  -2    3.58    0.08 
  -2   1   2    3.67    0.08 
   1  -1  -2  120.41    1.30 
  -1   1   2  120.64    1.36 
   0  -1  -2    9.01    0.12 
  -1  -1  -2    6.66    0.09 
  -1  -1  -2    6.46    0.12 
   2   1   2    4.11    0.08 
   3   1   2    1.92    0.07 
   4   1   2    9.52    0.19 
  -5  -1  -2    0.20    0.04 
   5   1   2    0.21    0.04 
  -6  -1  -2    0.01    0.03 
   6   1   2    0.13    0.04 
   7   1   2    0.04    0.04 
   6  -2  -2    0.26    0.06 
   5  -2  -2    0.06    0.03 
  -5   2   2    0.05    0.03 
   4  -2  -2    0.62    0.06 
  -4   2   2    0.65    0.05 
   3  -2  -2    0.56    0.05 
  -3   2   2    0.50    0.04 
   2  -2  -2    3.48    0.09 
  -2   2   2    3.51    0.10 
   1  -2  -2    0.97    0.04 
  -1   2   2    1.00    0.04 
   0  -2  -2  962.60   10.31 
   0  -2  -2 1000.00   11.00 
  -1  -2  -2  563.40    5.96 
  -2  -2  -2    0.80    0.04 
   3   2   2    3.49    0.09 
   4   2   2    6.68    0.15 
   5   2   2    3.04    0.11 
   6   2   2    0.01    0.03 
   7   2   2    0.60    0.08 
   6  -3  -2    0.02    0.04 
   5  -3  -2    0.07    0.04 
  -5   3   2    0.15    0.04 
   4  -3  -2   -0.01    0.02 
  -4   3   2   -0.02    0.02 
   3  -3  -2    1.32    0.07 
  -3   3   2    1.22    0.07 
   2  -3  -2   16.66    0.26 
  -2   3   2   16.95    0.28 
   1  -3  -2    4.43    0.10 
  -1   3   2    4.40    0.11 
   0  -3  -2    5.32    0.10 
  -1  -3  -2    0.02    0.01 
  -2  -3  -2    2.12    0.07 
  -3  -3  -2    1.12    0.05 
  -4  -3  -2    0.09    0.03 
  -5  -3  -2    0.23    0.04 
   5   3   2    0.30    0.05 
   6   3   2    0.12    0.04 
   7   3   2    0.47    0.07 
  -8  -3  -2    0.06    0.05 
   6  -4  -2    0.04    0.04 
   5  -4  -2    0.50    0.07 
  -5   4   2    0.59    0.07 
   4  -4  -2    0.37    0.05 
  -4   4   2    0.39    0.05 
   3  -4  -2    0.44    0.05 
  -3   4   2    0.38    0.05 
   2  -4  -2    3.74    0.11 
  -2   4   2    3.91    0.12 
   1  -4  -2   25.63    0.35 
  -1   4   2   25.93    0.38 
   0  -4  -2   19.21    0.27 
  -1  -4  -2    1.17    0.05 
  -2  -4  -2    8.49    0.16 
  -3  -4  -2    1.59    0.07 
  -4  -4  -2    0.23    0.04 
  -5  -4  -2    4.42    0.14 
  -6  -4  -2   15.81    0.32 
  -7  -4  -2    0.16    0.05 
   5  -5  -2    0.88    0.08 
  -5   5   2    0.82    0.08 
   4  -5  -2    0.76    0.07 
  -4   5   2    0.68    0.07 
   3  -5  -2    0.07    0.03 
  -3   5   2    0.06    0.03 
   2  -5  -2    0.02    0.02 
  -2   5   2    0.02    0.03 
   1  -5  -2    0.56    0.04 
  -1   5   2    0.57    0.05 
   0  -5  -2    1.37    0.06 
  -1  -5  -2    2.42    0.08 
  -2  -5  -2    0.12    0.03 
  -3  -5  -2    6.63    0.16 
  -4  -5  -2    8.93    0.20 
  -5  -5  -2    2.50    0.11 
  -6  -5  -2    4.38    0.16 
  -7  -5  -2    0.17    0.05 
   5  -6  -2   -0.03    0.04 
  -5   6   2    0.00    0.05 
   4  -6  -2    0.10    0.04 
  -4   6   2    0.08    0.04 
   3  -6  -2    0.10    0.04 
  -3   6   2    0.11    0.04 
   2  -6  -2    0.16    0.04 
  -2   6   2    0.03    0.03 
   1  -6  -2    0.74    0.05 
  -1   6   2    0.55    0.06 
   0  -6  -2    0.00    0.02 
  -1  -6  -2    0.17    0.03 
  -2  -6  -2    2.30    0.09 
  -3  -6  -2    0.21    0.04 
  -4  -6  -2    0.00    0.03 
  -5  -6  -2    0.33    0.05 
  -6  -6  -2    0.01    0.03 
  -7  -6  -2    0.16    0.06 
   4  -7  -2   -0.02    0.04 
  -4   7   2   -0.01    0.04 
   3  -7  -2    0.44    0.06 
  -3   7   2    0.35    0.07 
   2  -7  -2    0.91    0.07 
  -2   7   2    0.71    0.08 
   1  -7  -2   -0.01    0.02 
   0  -7  -2    0.08    0.03 
  -1  -7  -2    4.79    0.13 
  -2  -7  -2    1.08    0.07 
  -3  -7  -2    1.52    0.08 
  -4  -7  -2    0.23    0.05 
  -5  -7  -2    0.35    0.06 
  -6  -7  -2    0.16    0.05 
   3  -8  -2   -0.01    0.04 
  -3   8   2    0.02    0.05 
   2  -8  -2    0.62    0.07 
   1  -8  -2    0.35    0.05 
   0  -8  -2    0.20    0.04 
  -1  -8  -2    0.03    0.03 
  -2  -8  -2    1.03    0.07 
  -3  -8  -2    0.71    0.07 
  -4  -8  -2    0.10    0.04 
  -5  -8  -2    0.21    0.05 
  -6  -8  -2    0.01    0.04 
   2  -9  -2    3.39    0.15 
   1  -9  -2    6.14    0.19 
   0  -9  -2    0.11    0.04 
  -1  -9  -2    0.66    0.07 
  -2  -9  -2    0.26    0.05 
  -3  -9  -2    0.42    0.06 
  -4  -9  -2    0.15    0.05 
  -5  -9  -2    0.02    0.04 
   0 -10  -2    0.07    0.04 
  -1 -10  -2    0.01    0.04 
  -2 -10  -2    0.24    0.05 
  -3 -10  -2    0.05    0.04 
  -4  -9   3    0.01    0.04 
  -3  -9   3    0.16    0.05 
  -2  -9   3    0.03    0.04 
  -1  -9   3    0.41    0.05 
  -1   9  -3    0.08    0.05 
  -2   9  -3   -0.02    0.05 
  -5  -8   3    0.04    0.04 
  -4  -8   3    0.05    0.04 
  -3  -8   3    1.95    0.10 
  -2  -8   3    4.13    0.14 
  -1  -8   3    0.35    0.05 
   0   8  -3    2.29    0.12 
   0  -8   3    2.38    0.10 
  -1   8  -3    0.81    0.08 
  -2   8  -3    0.06    0.05 
  -3   8  -3   -0.04    0.04 
  -5  -7   3    0.01    0.03 
  -4  -7   3    0.01    0.03 
  -3  -7   3    7.46    0.20 
  -2  -7   3   14.99    0.28 
  -1  -7   3    2.02    0.09 
   0   7  -3    0.41    0.05 
   0  -7   3    0.52    0.05 
  -1   7  -3    0.06    0.04 
  -2   7  -3    0.00    0.03 
  -3   7  -3   -0.06    0.04 
  -4   7  -3    0.30    0.07 
  -6  -6   3    0.40    0.07 
  -5  -6   3    0.86    0.08 
  -4  -6   3    0.44    0.06 
  -3  -6   3    3.32    0.12 
   2   6  -3    0.18    0.05 
  -2  -6   3    0.14    0.03 
   1   6  -3    4.30    0.12 
   1   6  -3    4.14    0.16 
  -1  -6   3    4.34    0.12 
   0   6  -3    0.21    0.04 
   0   6  -3    0.19    0.04 
   0  -6   3    0.17    0.03 
  -1   6  -3    0.89    0.07 
   1  -6   3    1.09    0.06 
  -2   6  -3    0.17    0.05 
  -3   6  -3    1.61    0.11 
  -4   6  -3    0.15    0.06 
  -5   6  -3    0.44    0.08 
  -6  -5   3    0.18    0.05 
  -5  -5   3    5.27    0.18 
  -4  -5   3    0.29    0.05 
   3   5  -3   -0.04    0.03 
  -3  -5   3   -0.02    0.02 
   2   5  -3    2.03    0.11 
  -2  -5   3    1.99    0.08 
   1   5  -3   22.39    0.39 
   1   5  -3   21.91    0.32 
  -1  -5   3   22.07    0.32 
   0   5  -3    4.17    0.13 
   0   5  -3    4.31    0.12 
   0  -5   3    4.10    0.10 
  -1   5  -3    0.62    0.05 
  -1   5  -3    0.68    0.06 
   1  -5   3    0.67    0.04 
  -2   5  -3   24.05    0.41 
   2  -5   3   23.29    0.33 
  -3   5  -3   19.35    0.38 
  -4   5  -3    0.71    0.08 
  -5   5  -3    0.30    0.06 
   6   4  -3    0.08    0.04 
   5   4  -3    0.04    0.03 
  -4  -4   3    0.55    0.06 
   3   4  -3    0.20    0.04 
  -3  -4   3    0.22    0.04 
   2   4  -3    0.04    0.03 
  -2  -4   3    0.02    0.02 
   1   4  -3    1.56    0.06 
   1   4  -3    1.53    0.08 
  -1  -4   3    1.58    0.06 
   0   4  -3    0.03    0.02 
   0   4  -3    0.05    0.02 
   0  -4   3    0.04    0.01 
  -1   4  -3    1.58    0.08 
  -1   4  -3    1.63    0.07 
   1  -4   3    1.77    0.06 
  -2   4  -3    1.92    0.09 
   2  -4   3    1.78    0.06 
  -3   4  -3    1.13    0.09 
   3  -4   3    1.16    0.06 
  -4   4  -3   -0.02    0.03 
  -5   4  -3    0.14    0.05 
  -6   4  -3    0.05    0.05 
   7   3  -3    0.83    0.09 
   6   3  -3    0.04    0.04 
   5   3  -3    0.08    0.04 
   4   3  -3    0.49    0.06 
   3   3  -3    1.14    0.08 
   3   3  -3    1.10    0.06 
   2   3  -3   18.94    0.33 
   1   3  -3    9.17    0.14 
   1   3  -3    9.17    0.19 
  -1  -3   3    9.15    0.16 
   0   3  -3   41.20    0.53 
   0   3  -3   42.33    0.55 
   0  -3   3   41.97    0.49 
  -1   3  -3  121.47    1.45 
  -1   3  -3  126.37    1.43 
   1  -3   3  123.12    1.32 
  -2   3  -3    2.41    0.07 
  -2   3  -3    2.34    0.09 
   2  -3   3    2.26    0.06 
  -3   3  -3    0.06    0.03 
   3  -3   3    0.01    0.01 
  -4   3  -3    0.24    0.05 
  -5   3  -3    0.70    0.08 
  -6   3  -3    0.14    0.05 
   7   2  -3    0.41    0.07 
   6   2  -3    0.28    0.06 
   5   2  -3    0.56    0.07 
   4   2  -3    1.33    0.08 
   3   2  -3    1.59    0.08 
   3   2  -3    1.55    0.08 
   2   2  -3    0.02    0.02 
   2   2  -3    0.03    0.02 
   1   2  -3    4.27    0.11 
   1   2  -3    4.14    0.09 
   0   2  -3   27.98    0.37 
   0   2  -3   28.36    0.36 
   0  -2   3   27.65    0.33 
  -1   2  -3    0.17    0.02 
  -1   2  -3    0.13    0.02 
   1  -2   3    0.12    0.01 
  -2   2  -3    7.51    0.12 
  -2   2  -3    6.97    0.16 
   2  -2   3    7.24    0.12 
  -3   2  -3    0.03    0.01 
  -3   2  -3    0.02    0.02 
   3  -2   3    0.05    0.02 
  -4   2  -3    0.59    0.06 
   4  -2   3    0.47    0.04 
  -5   2  -3    0.34    0.06 
  -6   2  -3   -0.01    0.04 
  -7   2  -3    0.63    0.08 
   7   1  -3    0.07    0.05 
   6   1  -3    0.09    0.04 
   5   1  -3    0.94    0.08 
   4   1  -3   11.91    0.25 
   3   1  -3    4.97    0.14 
   3   1  -3    4.93    0.13 
   2   1  -3   98.36    1.11 
   2   1  -3   96.88    1.16 
   1   1  -3    0.59    0.03 
   1   1  -3    0.56    0.03 
   0   1  -3   25.51    0.33 
   0   1  -3   25.56    0.30 
  -1   1  -3    2.64    0.06 
  -1   1  -3    2.71    0.08 
   1  -1   3    2.67    0.04 
  -2   1  -3    0.55    0.04 
  -2   1  -3    0.50    0.03 
   2  -1   3    0.54    0.03 
  -3   1  -3    0.49    0.05 
  -3   1  -3    0.56    0.03 
   3  -1   3    0.63    0.04 
  -4   1  -3    0.01    0.02 
  -4   1  -3    0.02    0.02 
   4  -1   3    0.02    0.02 
  -5   1  -3    0.00    0.03 
   5  -1   3    0.05    0.02 
  -6   1  -3    2.75    0.13 
  -7   1  -3    0.02    0.04 
   6   0  -3    0.33    0.06 
   5   0  -3    9.17    0.24 
   4   0  -3   20.75    0.36 
   3   0  -3    1.52    0.07 
   3   0  -3    1.57    0.07 
  -3   0   3    1.63    0.05 
   2   0  -3    0.03    0.01 
   2   0  -3    0.02    0.02 
  -2   0   3    0.03    0.01 
   1   0  -3   97.84    1.11 
   1   0  -3   94.67    1.06 
   0   0  -3    8.95    0.13 
   0   0  -3    9.27    0.12 
  -1   0  -3    3.83    0.08 
  -2   0  -3   19.94    0.28 
   2   0   3   20.40    0.25 
  -3   0  -3    0.93    0.05 
   3   0   3    1.08    0.05 
  -4   0  -3    6.57    0.15 
  -4   0  -3    6.57    0.17 
   4   0   3    6.47    0.15 
  -5   0  -3    0.73    0.07 
   5   0   3    0.89    0.06 
  -6   0  -3    0.86    0.08 
   6  -1  -3    0.32    0.06 
   5  -1  -3    1.67    0.10 
   4  -1  -3    8.22    0.20 
  -4   1   3    8.18    0.17 
   3  -1  -3    7.38    0.17 
   3  -1  -3    7.50    0.15 
  -3   1   3    7.46    0.14 
   2  -1  -3   17.72    0.27 
   2  -1  -3   18.27    0.25 
  -2   1   3   18.10    0.25 
   1  -1  -3   30.21    0.37 
   1  -1  -3   30.88    0.38 
   0  -1  -3   48.98    0.55 
   0  -1  -3   50.06    0.58 
  -1  -1  -3   13.07    0.16 
  -2  -1  -3   32.16    0.38 
  -2  -1  -3   33.06    0.44 
  -3  -1  -3   26.27    0.38 
   3   1   3   25.67    0.34 
  -4  -1  -3    7.96    0.18 
   4   1   3    7.86    0.16 
  -5  -1  -3    0.10    0.03 
  -5  -1  -3    0.10    0.03 
   5   1   3    0.12    0.03 
  -6  -1  -3    0.03    0.03 
   6   1   3    0.01    0.03 
   6  -2  -3    2.30    0.13 
   5  -2  -3    1.33    0.09 
   4  -2  -3    0.69    0.06 
  -4   2   3    0.57    0.05 
   3  -2  -3    6.41    0.16 
  -3   2   3    6.03    0.14 
   2  -2  -3   23.65    0.34 
   2  -2  -3   23.05    0.30 
  -2   2   3   23.64    0.33 
   1  -2  -3    2.02    0.06 
   1  -2  -3    1.93    0.04 
   0  -2  -3   20.97    0.26 
   0  -2  -3   20.44    0.27 
  -1  -2  -3  547.64    6.17 
  -1  -2  -3  546.91    5.82 
  -2  -2  -3    2.28    0.06 
  -3  -2  -3   24.74    0.33 
   4   2   3    1.96    0.08 
   5   2   3    0.19    0.04 
  -6  -2  -3    0.01    0.03 
   6   2   3    0.02    0.03 
   7   2   3    0.06    0.04 
   6  -3  -3    0.04    0.04 
   5  -3  -3    0.06    0.04 
   4  -3  -3    0.03    0.03 
  -4   3   3    0.07    0.03 
   3  -3  -3    0.93    0.06 
  -3   3   3    1.21    0.07 
   2  -3  -3    0.84    0.05 
  -2   3   3    0.83    0.05 
   1  -3  -3    0.00    0.01 
   1  -3  -3    0.00    0.01 
   0  -3  -3   26.41    0.35 
   0  -3  -3   25.76    0.33 
  -1  -3  -3    8.96    0.14 
  -2  -3  -3    6.47    0.12 
  -3  -3  -3    0.11    0.02 
  -4  -3  -3    1.20    0.06 
  -5  -3  -3    0.68    0.06 
  -6  -3  -3    0.69    0.07 
  -7  -3  -3    0.04    0.04 
   5  -4  -3    0.02    0.03 
  -5   4   3    0.01    0.04 
   4  -4  -3    0.00    0.03 
  -4   4   3    0.02    0.03 
   3  -4  -3    0.35    0.05 
  -3   4   3    0.44    0.05 
   2  -4  -3   10.50    0.20 
  -2   4   3   10.40    0.22 
   1  -4  -3   31.24    0.41 
   0  -4  -3   -0.01    0.01 
   0  -4  -3    0.02    0.02 
  -1  -4  -3   15.09    0.22 
  -2  -4  -3    6.43    0.13 
  -3  -4  -3    1.59    0.07 
  -4  -4  -3    0.11    0.03 
  -5  -4  -3    4.95    0.15 
  -6  -4  -3    4.78    0.16 
  -7  -4  -3    0.07    0.04 
  -8  -4  -3    1.32    0.11 
   5  -5  -3    0.05    0.04 
  -5   5   3    0.03    0.04 
   4  -5  -3    0.08    0.04 
  -4   5   3   -0.01    0.03 
   3  -5  -3    0.36    0.05 
  -3   5   3    0.38    0.05 
   2  -5  -3    2.87    0.11 
  -2   5   3    2.85    0.12 
   1  -5  -3    0.32    0.04 
   0  -5  -3    0.04    0.02 
  -1  -5  -3   15.84    0.24 
  -2  -5  -3    2.14    0.08 
  -3  -5  -3    0.04    0.02 
  -4  -5  -3    0.27    0.04 
  -5  -5  -3   10.53    0.24 
  -6  -5  -3    9.18    0.24 
  -7  -5  -3    0.06    0.05 
  -5   6   3    0.05    0.05 
   4  -6  -3    1.02    0.09 
  -4   6   3    0.90    0.09 
   3  -6  -3    0.32    0.05 
  -3   6   3    0.33    0.06 
   2  -6  -3    0.44    0.05 
  -2   6   3    0.51    0.06 
   1  -6  -3    0.86    0.06 
   0  -6  -3    0.00    0.02 
  -1  -6  -3    0.27    0.04 
  -2  -6  -3    0.06    0.02 
  -3  -6  -3    0.23    0.04 
  -4  -6  -3    2.05    0.10 
  -5  -6  -3    0.09    0.04 
  -6  -6  -3    0.75    0.08 
  -7  -6  -3    0.02    0.04 
   4  -7  -3    0.42    0.07 
  -4   7   3    0.47    0.08 
   3  -7  -3    0.15    0.05 
  -3   7   3    0.21    0.05 
   2  -7  -3    0.72    0.07 
   1  -7  -3    0.02    0.02 
   0  -7  -3    0.53    0.05 
  -1  -7  -3    0.42    0.05 
  -2  -7  -3    0.17    0.04 
  -3  -7  -3   -0.01    0.02 
  -4  -7  -3    5.26    0.16 
  -5  -7  -3    0.22    0.05 
  -6  -7  -3    0.05    0.04 
   3  -8  -3    0.01    0.04 
   2  -8  -3   -0.01    0.03 
   1  -8  -3    0.20    0.05 
   0  -8  -3    0.19    0.04 
  -1  -8  -3    0.06    0.03 
  -2  -8  -3    0.25    0.04 
  -3  -8  -3    0.99    0.07 
  -4  -8  -3    0.26    0.05 
  -5  -8  -3    0.16    0.05 
  -6  -8  -3   -0.03    0.04 
   1  -9  -3    0.66    0.07 
   0  -9  -3    0.09    0.04 
  -1  -9  -3    1.64    0.09 
  -2  -9  -3    0.86    0.07 
  -3  -9  -3    0.26    0.05 
  -4  -9  -3    0.19    0.05 
  -5  -9  -3    0.00    0.03 
  -1 -10  -3    0.14    0.05 
  -2 -10  -3    0.04    0.04 
  -3 -10  -3    0.01    0.03 
  -3  -9   4   -0.01    0.04 
  -1   9  -4    0.17    0.06 
  -4  -8   4    0.22    0.05 
  -3  -8   4    0.18    0.04 
  -2  -8   4    0.17    0.04 
   0   8  -4    3.35    0.14 
  -1   8  -4    0.02    0.04 
  -2   8  -4    0.10    0.05 
  -3   8  -4    0.03    0.05 
  -5  -7   4    0.06    0.04 
  -4  -7   4    0.01    0.03 
  -3  -7   4    2.45    0.11 
   2   7  -4    0.52    0.08 
  -2  -7   4    0.40    0.05 
   1   7  -4    0.88    0.09 
  -1  -7   4    0.69    0.06 
   0   7  -4    1.14    0.09 
   0   7  -4    1.21    0.08 
  -1   7  -4    0.04    0.03 
  -2   7  -4    0.10    0.05 
  -3   7  -4    0.05    0.05 
  -4   7  -4    0.03    0.05 
  -5  -6   4    0.17    0.05 
  -4  -6   4    1.15    0.08 
   3   6  -4    0.51    0.08 
  -3  -6   4    0.48    0.06 
   2   6  -4   18.46    0.40 
  -2  -6   4   18.54    0.32 
   1   6  -4    9.24    0.25 
  -1  -6   4    9.47    0.19 
   0   6  -4    0.01    0.02 
   0   6  -4    0.08    0.03 
   0  -6   4    0.01    0.02 
  -1   6  -4    0.02    0.03 
  -2   6  -4    0.53    0.06 
  -3   6  -4    0.25    0.06 
  -4   6  -4    0.01    0.04 
  -5   6  -4    0.23    0.07 
  -6  -5   4   -0.02    0.03 
  -5  -5   4    0.78    0.08 
  -4  -5   4    3.80    0.14 
   3   5  -4    0.13    0.05 
  -3  -5   4    0.18    0.04 
   2   5  -4    0.10    0.04 
  -2  -5   4    0.10    0.03 
   1   5  -4    5.61    0.17 
   1   5  -4    5.63    0.13 
  -1  -5   4    5.64    0.13 
   0   5  -4    0.05    0.02 
   0   5  -4    0.06    0.03 
   0  -5   4    0.07    0.02 
  -1   5  -4    0.04    0.03 
  -1   5  -4    0.05    0.03 
   1  -5   4    0.03    0.02 
  -2   5  -4    0.79    0.07 
  -3   5  -4    6.11    0.20 
  -4   5  -4    0.38    0.07 
  -5   5  -4    1.38    0.11 
   6   4  -4   -0.01    0.03 
   5   4  -4    0.11    0.04 
   4   4  -4    1.26    0.10 
   4   4  -4    1.15    0.08 
   3   4  -4    2.29    0.12 
  -3  -4   4    2.57    0.10 
   2   4  -4    1.11    0.08 
  -2  -4   4    1.04    0.06 
   1   4  -4    0.66    0.04 
   1   4  -4    0.53    0.05 
  -1  -4   4    0.57    0.04 
   0   4  -4    2.63    0.10 
   0   4  -4    2.83    0.09 
   0  -4   4    2.75    0.07 
  -1   4  -4   -0.01    0.02 
  -1   4  -4    0.00    0.02 
   1  -4   4    0.00    0.01 
  -2   4  -4    0.00    0.02 
  -2   4  -4    0.04    0.03 
   2  -4   4    0.04    0.01 
  -3   4  -4    1.72    0.11 
  -4   4  -4   -0.02    0.03 
  -5   4  -4    0.01    0.04 
  -6   4  -4    0.03    0.05 
   6   3  -4    0.03    0.04 
   5   3  -4    0.40    0.06 
   4   3  -4    0.34    0.05 
   4   3  -4    0.52    0.06 
   3   3  -4    0.58    0.05 
   3   3  -4    0.50    0.06 
   2   3  -4    0.42    0.05 
   2   3  -4    0.55    0.04 
   1   3  -4    3.99    0.12 
   1   3  -4    3.95    0.08 
  -1  -3   4    3.89    0.10 
   0   3  -4   33.88    0.47 
   0   3  -4   34.72    0.45 
   0  -3   4   34.12    0.41 
  -1   3  -4   64.73    0.80 
  -1   3  -4   65.08    0.82 
  -2   3  -4   13.70    0.21 
  -2   3  -4   13.55    0.26 
   2  -3   4   13.41    0.19 
  -3   3  -4   29.67    0.48 
  -4   3  -4    0.02    0.04 
  -5   3  -4    0.05    0.04 
  -6   3  -4    0.15    0.05 
   6   2  -4    0.36    0.07 
   5   2  -4    0.01    0.03 
   4   2  -4    0.02    0.03 
   4   2  -4    0.00    0.02 
   3   2  -4    1.80    0.08 
   3   2  -4    1.74    0.09 
   2   2  -4    0.14    0.03 
   2   2  -4    0.10    0.02 
   1   2  -4   19.79    0.27 
   1   2  -4   19.66    0.30 
   0   2  -4  103.89    1.23 
   0   2  -4  106.90    1.21 
   0  -2   4  104.88    1.14 
  -1   2  -4   19.68    0.27 
  -1   2  -4   19.86    0.30 
   1  -2   4   19.06    0.23 
  -2   2  -4    0.33    0.03 
  -2   2  -4    0.31    0.04 
   2  -2   4    0.29    0.02 
  -3   2  -4    1.18    0.05 
  -3   2  -4    1.10    0.07 
   3  -2   4    1.07    0.05 
  -4   2  -4    0.47    0.06 
  -5   2  -4    1.42    0.10 
  -6   2  -4    0.17    0.05 
  -7   2  -4    0.06    0.05 
   6   1  -4    0.02    0.04 
   5   1  -4    0.55    0.07 
   4   1  -4    0.24    0.04 
   4   1  -4    0.23    0.04 
   3   1  -4    0.15    0.03 
   3   1  -4    0.11    0.03 
   2   1  -4   58.96    0.75 
   2   1  -4   60.03    0.72 
   1   1  -4    1.11    0.05 
   1   1  -4    1.17    0.05 
   0   1  -4    9.56    0.13 
   0   1  -4    9.14    0.15 
  -1   1  -4    0.06    0.01 
  -2   1  -4    0.08    0.02 
  -2   1  -4    0.02    0.01 
   2  -1   4    0.05    0.01 
  -3   1  -4    0.66    0.05 
  -3   1  -4    0.71    0.04 
   3  -1   4    0.72    0.04 
  -4   1  -4    0.34    0.03 
  -4   1  -4    0.36    0.05 
   4  -1   4    0.37    0.04 
  -5   1  -4    1.25    0.09 
  -6   1  -4    1.28    0.10 
  -7   1  -4    0.09    0.05 
   6   0  -4    0.00    0.03 
   5   0  -4    0.10    0.04 
   4   0  -4    5.37    0.16 
   3   0  -4   18.20    0.30 
   3   0  -4   18.52    0.31 
   2   0  -4   49.99    0.62 
   2   0  -4   49.64    0.63 
   1   0  -4   14.37    0.21 
   1   0  -4   14.16    0.21 
   0   0  -4    1.29    0.04 
   0   0  -4    1.37    0.04 
  -1   0  -4   12.52    0.19 
  -2   0  -4   39.46    0.45 
  -2   0  -4   41.46    0.51 
  -3   0  -4    4.17    0.11 
   3   0   4    4.20    0.09 
  -4   0  -4    0.47    0.05 
  -4   0  -4    0.53    0.04 
   4   0   4    0.46    0.04 
  -5   0  -4    0.82    0.07 
  -6   0  -4    3.71    0.15 
  -7   0  -4   -0.01    0.04 
   6  -1  -4    0.02    0.04 
   5  -1  -4    0.09    0.04 
   4  -1  -4    9.90    0.23 
   3  -1  -4    2.43    0.10 
   3  -1  -4    2.56    0.08 
  -3   1   4    2.64    0.08 
   2  -1  -4    3.22    0.08 
   2  -1  -4    3.36    0.10 
   1  -1  -4    4.38    0.08 
   1  -1  -4    4.33    0.10 
   0  -1  -4   21.90    0.27 
   0  -1  -4   21.75    0.28 
  -1  -1  -4    0.47    0.03 
  -2  -1  -4    4.06    0.07 
  -2  -1  -4    3.86    0.10 
  -3  -1  -4   20.97    0.28 
  -3  -1  -4   21.24    0.33 
  -4  -1  -4    0.01    0.02 
   4   1   4    0.04    0.02 
  -5  -1  -4    1.35    0.08 
  -5  -1  -4    1.45    0.09 
   5   1   4    1.30    0.07 
  -6  -1  -4    0.43    0.06 
   6  -2  -4    1.05    0.10 
   5  -2  -4    1.64    0.11 
   4  -2  -4    8.47    0.22 
  -4   2   4    8.35    0.18 
   3  -2  -4    0.10    0.03 
  -3   2   4    0.15    0.03 
   2  -2  -4   10.85    0.16 
   2  -2  -4   10.96    0.20 
   1  -2  -4   33.56    0.41 
   1  -2  -4   34.25    0.43 
   0  -2  -4    0.45    0.03 
   0  -2  -4    0.42    0.03 
  -1  -2  -4   23.60    0.29 
  -1  -2  -4   23.96    0.33 
  -2  -2  -4   11.82    0.17 
  -2  -2  -4   11.79    0.21 
  -3  -2  -4  146.35    1.74 
  -3  -2  -4  147.99    1.60 
  -4  -2  -4    6.04    0.17 
  -4  -2  -4    5.96    0.13 
  -5  -2  -4    0.09    0.03 
  -5  -2  -4    0.16    0.04 
   5   2   4    0.20    0.04 
  -6  -2  -4    0.14    0.04 
  -6  -2  -4    0.25    0.05 
   6   2   4    0.21    0.04 
   6  -3  -4    0.13    0.06 
   5  -3  -4    0.00    0.03 
   4  -3  -4    2.47    0.11 
  -4   3   4    2.44    0.10 
   3  -3  -4    0.37    0.05 
  -3   3   4    0.37    0.04 
   2  -3  -4    0.35    0.04 
   1  -3  -4    4.41    0.11 
   1  -3  -4    4.26    0.08 
   0  -3  -4    0.82    0.04 
   0  -3  -4    0.84    0.04 
  -1  -3  -4    1.38    0.06 
  -1  -3  -4    1.39    0.05 
  -2  -3  -4   12.83    0.19 
  -2  -3  -4   12.75    0.24 
  -3  -3  -4    3.87    0.10 
  -4  -3  -4    1.71    0.07 
  -5  -3  -4    1.06    0.07 
  -6  -3  -4    0.18    0.04 
  -7  -3  -4   -0.03    0.04 
   5  -4  -4   -0.03    0.03 
   4  -4  -4    0.05    0.03 
  -4   4   4    0.00    0.03 
   3  -4  -4    0.08    0.03 
  -3   4   4    0.08    0.03 
   2  -4  -4    0.25    0.04 
   1  -4  -4   16.95    0.27 
   0  -4  -4   14.20    0.22 
   0  -4  -4   14.33    0.23 
  -1  -4  -4  238.63    2.52 
  -1  -4  -4  235.21    2.70 
  -2  -4  -4   39.44    0.49 
  -3  -4  -4    2.88    0.09 
  -4  -4  -4    0.76    0.05 
  -5  -4  -4    5.58    0.16 
  -6  -4  -4    0.24    0.05 
  -7  -4  -4    0.02    0.04 
   5  -5  -4    0.03    0.04 
  -5   5   4    0.01    0.04 
   4  -5  -4    0.03    0.03 
  -4   5   4   -0.03    0.03 
   3  -5  -4    0.08    0.03 
  -3   5   4    0.01    0.03 
   2  -5  -4    0.76    0.06 
   1  -5  -4   14.98    0.26 
   0  -5  -4    1.09    0.06 
   0  -5  -4    1.23    0.06 
  -1  -5  -4    2.01    0.07 
  -2  -5  -4    0.03    0.02 
  -3  -5  -4    1.60    0.07 
  -4  -5  -4    2.03    0.09 
  -5  -5  -4    0.34    0.05 
  -6  -5  -4    0.41    0.06 
  -7  -5  -4    0.05    0.04 
   4  -6  -4    0.47    0.07 
   3  -6  -4    0.16    0.04 
   2  -6  -4    0.10    0.04 
   1  -6  -4    3.39    0.11 
   0  -6  -4    0.16    0.03 
  -1  -6  -4    0.12    0.03 
  -2  -6  -4    1.72    0.08 
  -3  -6  -4    1.10    0.07 
  -4  -6  -4    1.66    0.09 
  -5  -6  -4    0.66    0.07 
  -6  -6  -4    7.89    0.22 
  -7  -6  -4    0.76    0.09 
   3  -7  -4    0.30    0.06 
   2  -7  -4    0.05    0.03 
   1  -7  -4    0.26    0.04 
   0  -7  -4    0.10    0.03 
  -1  -7  -4    0.45    0.05 
  -2  -7  -4    0.01    0.03 
  -3  -7  -4    4.76    0.14 
  -4  -7  -4    7.31    0.19 
  -5  -7  -4   -0.04    0.03 
  -6  -7  -4    2.66    0.13 
  -7  -7  -4    0.21    0.06 
   2  -8  -4    0.00    0.03 
   1  -8  -4    0.69    0.07 
   0  -8  -4    0.05    0.03 
  -1  -8  -4    1.26    0.08 
  -2  -8  -4    0.74    0.06 
  -3  -8  -4    0.13    0.04 
  -4  -8  -4    0.06    0.03 
  -5  -8  -4    0.06    0.04 
  -6  -8  -4   -0.05    0.03 
   1  -9  -4    0.02    0.04 
   0  -9  -4    0.00    0.03 
  -1  -9  -4    3.32    0.13 
  -2  -9  -4    2.24    0.11 
  -3  -9  -4    0.11    0.04 
  -4  -9  -4    0.00    0.03 
  -5  -9  -4    0.00    0.04 
  -1 -10  -4    0.17    0.05 
  -2 -10  -4    0.20    0.05 
  -3 -10  -4    0.08    0.04 
  -4  -8   5    0.14    0.05 
  -3  -8   5    0.16    0.04 
   1   8  -5    0.10    0.06 
  -1   8  -5    0.03    0.04 
  -2   8  -5    0.07    0.05 
  -5  -7   5   -0.04    0.04 
  -4  -7   5    0.04    0.04 
   3   7  -5    0.41    0.09 
  -3  -7   5    0.38    0.05 
   2   7  -5   -0.04    0.04 
  -2  -7   5   -0.01    0.03 
   1   7  -5    0.50    0.08 
   0   7  -5    0.00    0.04 
  -1   7  -5    0.06    0.04 
  -2   7  -5    0.05    0.04 
  -3   7  -5    0.01    0.04 
  -4   7  -5    0.08    0.06 
  -5  -6   5    0.06    0.04 
  -4  -6   5    0.12    0.04 
   3   6  -5    2.04    0.14 
  -3  -6   5    2.04    0.10 
   2   6  -5   20.80    0.43 
  -2  -6   5   20.77    0.35 
   1   6  -5    0.19    0.05 
  -1  -6   5    0.24    0.04 
   0   6  -5    3.70    0.15 
   0   6  -5    3.52    0.12 
  -1   6  -5    0.89    0.07 
  -2   6  -5    0.46    0.06 
  -3   6  -5   -0.03    0.04 
  -4   6  -5    0.14    0.05 
  -5   6  -5   -0.02    0.05 
  -6  -5   5    0.28    0.06 
  -5  -5   5   -0.01    0.03 
   4   5  -5    2.87    0.16 
  -4  -5   5    2.72    0.12 
   3   5  -5    8.37    0.25 
  -3  -5   5    8.22    0.20 
   2   5  -5   41.52    0.66 
  -2  -5   5   42.20    0.57 
   1   5  -5    6.79    0.20 
  -1  -5   5    6.81    0.15 
   0   5  -5    0.03    0.02 
   0   5  -5    0.07    0.03 
   0  -5   5    0.04    0.02 
  -1   5  -5    0.84    0.07 
  -1   5  -5    0.79    0.06 
  -2   5  -5    3.10    0.13 
  -3   5  -5   -0.01    0.03 
  -4   5  -5   -0.07    0.03 
  -5   5  -5    1.24    0.11 
   6   4  -5    0.50    0.07 
   5   4  -5    0.05    0.04 
   4   4  -5    0.51    0.07 
   4   4  -5    0.68    0.08 
   3   4  -5   -0.07    0.03 
  -3  -4   5    0.02    0.02 
   2   4  -5    0.17    0.04 
  -2  -4   5    0.21    0.03 
   1   4  -5    2.39    0.10 
  -1  -4   5    2.40    0.08 
   0   4  -5    0.32    0.04 
   0   4  -5    0.32    0.04 
   0  -4   5    0.31    0.03 
  -1   4  -5    1.81    0.08 
  -1   4  -5    1.81    0.08 
  -2   4  -5    1.18    0.08 
  -2   4  -5    1.24    0.07 
  -3   4  -5    1.53    0.10 
  -4   4  -5    0.83    0.08 
  -5   4  -5    0.27    0.07 
  -6   4  -5    0.13    0.06 
   6   3  -5    0.05    0.04 
   5   3  -5    0.61    0.07 
   4   3  -5    1.34    0.10 
   4   3  -5    1.20    0.08 
   3   3  -5    0.11    0.03 
   3   3  -5    0.16    0.04 
   2   3  -5    0.45    0.05 
   2   3  -5    0.48    0.05 
   1   3  -5    3.61    0.12 
   1   3  -5    3.72    0.08 
  -1  -3   5    3.62    0.09 
   0   3  -5   28.75    0.40 
   0   3  -5   28.26    0.41 
   0  -3   5   28.02    0.35 
  -1   3  -5    0.06    0.02 
  -1   3  -5    0.06    0.02 
   1  -3   5    0.02    0.01 
  -2   3  -5    5.42    0.12 
  -2   3  -5    5.47    0.15 
  -3   3  -5   39.95    0.60 
  -4   3  -5   16.48    0.35 
  -5   3  -5    0.22    0.06 
  -6   3  -5    0.08    0.05 
   6   2  -5    0.03    0.04 
   5   2  -5    0.04    0.03 
   4   2  -5    2.24    0.11 
   4   2  -5    2.03    0.10 
   3   2  -5    0.33    0.04 
   3   2  -5    0.22    0.04 
   2   2  -5    3.08    0.10 
   2   2  -5    2.96    0.11 
   1   2  -5    4.03    0.08 
   1   2  -5    3.93    0.10 
   1   2  -5    3.89    0.11 
   0   2  -5    0.32    0.03 
   0   2  -5    0.30    0.03 
   0  -2   5    0.36    0.02 
  -1   2  -5    0.27    0.04 
  -1   2  -5    0.25    0.03 
  -2   2  -5    3.87    0.12 
  -2   2  -5    4.00    0.09 
   2  -2   5    4.01    0.07 
  -3   2  -5    7.36    0.19 
  -3   2  -5    7.91    0.15 
  -4   2  -5    0.23    0.05 
  -5   2  -5    1.39    0.10 
  -6   2  -5   -0.03    0.04 
  -7   2  -5    0.07    0.05 
   6   1  -5    0.02    0.04 
   5   1  -5   -0.04    0.02 
   4   1  -5    0.04    0.03 
   4   1  -5    0.03    0.03 
   3   1  -5    1.81    0.09 
   3   1  -5    1.78    0.08 
   2   1  -5    5.57    0.13 
   2   1  -5    5.70    0.14 
   1   1  -5    5.53    0.13 
   1   1  -5    5.67    0.12 
   0   1  -5    0.11    0.02 
   0   1  -5    0.12    0.02 
  -1   1  -5  206.40    2.33 
  -2   1  -5    6.76    0.13 
  -3   1  -5    1.83    0.07 
  -3   1  -5    1.94    0.09 
  -4   1  -5    0.04    0.03 
  -4   1  -5    0.03    0.02 
  -5   1  -5    2.19    0.12 
  -6   1  -5    0.12    0.05 
  -7   1  -5    0.01    0.04 
   6   0  -5   -0.02    0.03 
   5   0  -5    0.73    0.08 
   4   0  -5    0.04    0.03 
   3   0  -5    0.25    0.04 
   3   0  -5    0.32    0.04 
   2   0  -5    1.81    0.08 
   2   0  -5    1.80    0.07 
   1   0  -5   12.37    0.20 
   1   0  -5   12.10    0.20 
   0   0  -5    0.11    0.02 
   0   0  -5    0.13    0.02 
  -1   0  -5    4.06    0.09 
  -2   0  -5   11.86    0.20 
  -3   0  -5    1.88    0.07 
   3   0   5    1.83    0.05 
  -4   0  -5    0.56    0.04 
  -5   0  -5    0.16    0.05 
  -5   0  -5    0.12    0.03 
  -6   0  -5    0.89    0.09 
  -7   0  -5   -0.02    0.04 
   6  -1  -5    0.03    0.04 
   5  -1  -5    0.07    0.04 
   4  -1  -5    9.92    0.24 
   3  -1  -5   12.25    0.22 
   3  -1  -5   12.43    0.25 
   2  -1  -5   57.92    0.71 
   2  -1  -5   58.45    0.71 
   1  -1  -5   24.95    0.33 
   1  -1  -5   25.23    0.34 
   0  -1  -5    0.92    0.04 
   0  -1  -5    0.96    0.04 
  -1  -1  -5   11.45    0.19 
  -1  -1  -5   11.91    0.15 
  -2  -1  -5    1.55    0.04 
  -2  -1  -5    1.53    0.06 
  -3  -1  -5   26.52    0.39 
  -3  -1  -5   25.44    0.32 
  -4  -1  -5    2.29    0.07 
  -4  -1  -5    2.31    0.09 
  -5  -1  -5    0.02    0.02 
  -6  -1  -5    0.86    0.08 
  -7  -1  -5    0.24    0.06 
   6  -2  -5    0.40    0.07 
   5  -2  -5    0.47    0.07 
   4  -2  -5   25.57    0.44 
   3  -2  -5   14.70    0.28 
   2  -2  -5    0.15    0.03 
   2  -2  -5    0.14    0.02 
   1  -2  -5   15.46    0.24 
   1  -2  -5   15.13    0.22 
   0  -2  -5   12.22    0.18 
   0  -2  -5   12.18    0.19 
  -1  -2  -5   22.53    0.32 
  -2  -2  -5   -0.02    0.01 
  -2  -2  -5    0.02    0.02 
  -3  -2  -5    0.40    0.05 
  -3  -2  -5    0.45    0.03 
  -4  -2  -5    0.29    0.03 
  -4  -2  -5    0.21    0.04 
  -5  -2  -5    0.01    0.03 
  -5  -2  -5    0.01    0.02 
  -6  -2  -5    0.33    0.05 
  -7  -2  -5    0.13    0.05 
   5  -3  -5   -0.03    0.03 
   4  -3  -5    1.14    0.08 
   3  -3  -5   -0.01    0.02 
   2  -3  -5    3.99    0.12 
   1  -3  -5    3.77    0.08 
   1  -3  -5    3.81    0.10 
   0  -3  -5    0.07    0.02 
   0  -3  -5    0.09    0.02 
  -1  -3  -5    4.51    0.09 
  -1  -3  -5    4.56    0.12 
  -2  -3  -5    7.50    0.17 
  -2  -3  -5    7.54    0.13 
  -3  -3  -5    0.08    0.02 
  -3  -3  -5    0.11    0.03 
  -4  -3  -5    3.68    0.10 
  -4  -3  -5    3.82    0.14 
  -5  -3  -5    0.24    0.05 
  -5  -3  -5    0.32    0.04 
  -6  -3  -5    0.25    0.04 
  -6  -3  -5    0.21    0.05 
  -7  -3  -5    0.02    0.04 
   5  -4  -5    0.06    0.04 
   4  -4  -5    0.33    0.06 
   3  -4  -5    1.01    0.07 
   2  -4  -5    1.95    0.09 
   1  -4  -5    1.24    0.06 
   0  -4  -5    3.34    0.09 
   0  -4  -5    3.34    0.09 
  -1  -4  -5  157.81    1.70 
  -1  -4  -5  156.95    1.84 
  -2  -4  -5   37.14    0.54 
  -2  -4  -5   37.23    0.47 
  -3  -4  -5    3.09    0.09 
  -3  -4  -5    3.06    0.12 
  -4  -4  -5    0.06    0.02 
  -5  -4  -5   -0.01    0.02 
  -6  -4  -5    0.08    0.04 
  -6  -4  -5    0.08    0.03 
  -7  -4  -5    0.00    0.04 
   4  -5  -5    0.09    0.04 
   3  -5  -5    0.09    0.04 
   2  -5  -5    0.04    0.03 
   1  -5  -5    0.33    0.04 
   0  -5  -5    4.03    0.11 
   0  -5  -5    3.98    0.11 
  -1  -5  -5    7.07    0.17 
  -1  -5  -5    7.02    0.15 
  -2  -5  -5    0.32    0.04 
  -2  -5  -5    0.29    0.05 
  -3  -5  -5    1.31    0.06 
  -4  -5  -5    5.88    0.15 
  -5  -5  -5    0.75    0.06 
  -6  -5  -5    0.40    0.06 
  -7  -5  -5    0.08    0.05 
  -7  -5  -5    0.04    0.04 
   4  -6  -5    0.04    0.04 
   3  -6  -5    0.00    0.03 
   2  -6  -5    0.49    0.06 
   1  -6  -5    5.37    0.15 
   0  -6  -5    6.73    0.16 
  -1  -6  -5    5.17    0.15 
  -1  -6  -5    4.99    0.13 
  -2  -6  -5    1.33    0.07 
  -3  -6  -5    0.27    0.04 
  -4  -6  -5    1.06    0.07 
  -5  -6  -5    1.11    0.08 
  -6  -6  -5    1.87    0.11 
  -7  -6  -5    1.03    0.09 
   3  -7  -5    0.10    0.05 
   2  -7  -5    0.03    0.03 
   1  -7  -5    0.73    0.06 
   0  -7  -5    0.14    0.03 
  -1  -7  -5    0.04    0.03 
  -2  -7  -5    0.00    0.02 
  -3  -7  -5    0.42    0.05 
  -4  -7  -5    0.02    0.03 
  -5  -7  -5    0.37    0.06 
  -6  -7  -5    3.67    0.15 
  -7  -7  -5    1.49    0.11 
   2  -8  -5    0.18    0.05 
   1  -8  -5   -0.01    0.03 
   0  -8  -5    0.02    0.03 
  -1  -8  -5    0.02    0.03 
  -2  -8  -5    1.18    0.08 
  -3  -8  -5    0.02    0.03 
  -4  -8  -5    1.17    0.08 
  -5  -8  -5   -0.01    0.03 
  -6  -8  -5    0.31    0.06 
   1  -9  -5    0.05    0.04 
   0  -9  -5    0.37    0.06 
  -1  -9  -5    0.05    0.04 
  -2  -9  -5    0.05    0.03 
  -3  -9  -5   -0.01    0.03 
  -4  -9  -5    1.47    0.10 
  -5  -9  -5    0.16    0.05 
  -2 -10  -5    0.02    0.04 
  -3 -10  -5    0.08    0.04 
  -4  -8   6    0.33    0.06 
   2   8  -6    0.03    0.07 
   1   8  -6    0.26    0.08 
  -2   8  -6    0.14    0.05 
  -4  -7   6    0.05    0.04 
   3   7  -6   -0.01    0.05 
  -3  -7   6    0.02    0.03 
   2   7  -6    0.43    0.08 
   1   7  -6    0.11    0.05 
   0   7  -6    0.27    0.06 
  -1   7  -6    0.07    0.04 
  -2   7  -6    0.00    0.04 
  -3   7  -6    0.03    0.05 
  -5  -6   6    0.03    0.04 
   4   6  -6    0.24    0.08 
  -4  -6   6    0.25    0.05 
   3   6  -6    1.87    0.14 
  -3  -6   6    1.89    0.10 
   2   6  -6    0.14    0.05 
  -2  -6   6    0.14    0.03 
   1   6  -6    0.13    0.05 
   0   6  -6    3.38    0.15 
  -1   6  -6    1.38    0.09 
  -2   6  -6    0.66    0.07 
  -3   6  -6    0.01    0.04 
  -4   6  -6    0.05    0.05 
  -5  -5   6    0.41    0.06 
   4   5  -6    0.33    0.07 
  -4  -5   6    0.37    0.06 
   3   5  -6    1.17    0.10 
  -3  -5   6    1.19    0.08 
   2   5  -6    2.82    0.14 
  -2  -5   6    2.75    0.11 
   1   5  -6    0.40    0.06 
  -1  -5   6    0.34    0.04 
   0   5  -6    0.02    0.03 
   0   5  -6    0.03    0.02 
  -1   5  -6    1.03    0.07 
  -1   5  -6    1.05    0.07 
  -2   5  -6    0.28    0.05 
  -3   5  -6    0.17    0.05 
  -4   5  -6   -0.01    0.04 
  -5   5  -6    0.06    0.05 
   5   4  -6    0.15    0.05 
   4   4  -6    1.78    0.12 
   4   4  -6    1.58    0.10 
   3   4  -6    3.78    0.16 
   2   4  -6   18.53    0.37 
  -2  -4   6   18.67    0.31 
   1   4  -6   13.40    0.28 
  -1  -4   6   13.39    0.23 
   0   4  -6    0.74    0.06 
   0   4  -6    0.88    0.06 
  -1   4  -6    0.02    0.02 
  -1   4  -6    0.01    0.02 
  -2   4  -6    0.47    0.06 
  -2   4  -6    0.56    0.05 
  -3   4  -6    1.33    0.10 
  -4   4  -6    0.21    0.06 
  -5   4  -6    0.48    0.08 
  -6   4  -6    0.33    0.08 
   6   3  -6    0.01    0.04 
   5   3  -6    0.06    0.05 
   5   3  -6    0.01    0.03 
   4   3  -6   10.04    0.25 
   4   3  -6   10.25    0.27 
   3   3  -6    1.57    0.10 
   3   3  -6    1.51    0.08 
   2   3  -6    0.02    0.02 
   2   3  -6    0.06    0.02 
   1   3  -6    0.25    0.04 
  -1  -3   6    0.24    0.03 
   0   3  -6    2.32    0.08 
   0   3  -6    2.04    0.09 
   0  -3   6    2.23    0.06 
  -1   3  -6    0.20    0.03 
  -1   3  -6    0.25    0.03 
  -2   3  -6    0.78    0.06 
  -2   3  -6    0.78    0.05 
  -3   3  -6   23.75    0.43 
  -3   3  -6   24.14    0.35 
  -4   3  -6    3.24    0.15 
  -5   3  -6    1.99    0.13 
  -6   3  -6    1.69    0.13 
   6   2  -6    0.35    0.07 
   5   2  -6    0.07    0.04 
   5   2  -6    0.01    0.03 
   4   2  -6    0.23    0.05 
   4   2  -6    0.22    0.05 
   3   2  -6    0.27    0.04 
   3   2  -6    0.28    0.04 
   2   2  -6    1.59    0.07 
   2   2  -6    1.55    0.08 
   1   2  -6    6.95    0.16 
   1   2  -6    6.99    0.14 
   0   2  -6    2.40    0.08 
   0   2  -6    2.40    0.08 
   0  -2   6    2.50    0.06 
  -1   2  -6    5.83    0.15 
  -1   2  -6    5.56    0.13 
  -2   2  -6    0.01    0.02 
  -2   2  -6    0.02    0.02 
  -3   2  -6    4.26    0.15 
  -3   2  -6    4.56    0.11 
  -4   2  -6   -0.07    0.05 
  -5   2  -6    0.00    0.03 
  -6   2  -6    0.11    0.06 
  -7   2  -6   -0.02    0.05 
   6   1  -6    0.49    0.08 
   5   1  -6    0.30    0.06 
   4   1  -6    0.01    0.02 
   4   1  -6    0.01    0.03 
   3   1  -6    0.05    0.03 
   3   1  -6    0.09    0.03 
   2   1  -6    0.77    0.05 
   2   1  -6    0.88    0.06 
   1   1  -6   21.43    0.30 
   1   1  -6   20.65    0.32 
   0   1  -6    6.80    0.12 
   0   1  -6    7.05    0.14 
  -1   1  -6   50.87    0.63 
  -2   1  -6    8.90    0.16 
  -3   1  -6   12.08    0.26 
  -3   1  -6   12.73    0.21 
  -4   1  -6    0.03    0.03 
  -4   1  -6    0.03    0.04 
  -5   1  -6    0.11    0.05 
  -6   1  -6    0.09    0.05 
  -7   1  -6    0.13    0.06 
   6   0  -6    0.15    0.05 
   5   0  -6    0.02    0.03 
   4   0  -6    0.05    0.03 
   3   0  -6    0.59    0.06 
   3   0  -6    0.40    0.04 
   2   0  -6    0.65    0.05 
   2   0  -6    0.68    0.05 
   1   0  -6    1.52    0.06 
   1   0  -6    1.56    0.06 
   0   0  -6    4.11    0.10 
   0   0  -6    4.26    0.09 
  -1   0  -6    4.32    0.10 
  -1   0  -6    4.36    0.07 
  -2   0  -6    0.66    0.05 
  -3   0  -6    2.37    0.08 
  -4   0  -6    1.31    0.07 
  -5   0  -6    0.59    0.07 
  -5   0  -6    0.68    0.05 
  -6   0  -6    0.02    0.04 
  -7   0  -6   -0.01    0.04 
   5  -1  -6   -0.04    0.03 
   4  -1  -6    0.03    0.03 
   3  -1  -6    0.00    0.02 
   3  -1  -6    0.06    0.03 
   2  -1  -6   10.27    0.20 
   2  -1  -6   10.17    0.19 
   1  -1  -6   11.12    0.19 
   1  -1  -6   11.39    0.19 
   0  -1  -6    6.08    0.12 
   0  -1  -6    6.21    0.11 
  -1  -1  -6   32.97    0.44 
  -1  -1  -6   33.33    0.38 
  -3  -1  -6    3.77    0.11 
  -3  -1  -6    3.74    0.07 
  -4  -1  -6    0.05    0.02 
  -5  -1  -6    0.08    0.03 
  -6  -1  -6    0.65    0.08 
  -7  -1  -6    0.65    0.09 
   5  -2  -6   -0.01    0.03 
   4  -2  -6    3.01    0.13 
   3  -2  -6    0.30    0.05 
   2  -2  -6   18.52    0.31 
   2  -2  -6   17.89    0.27 
   1  -2  -6    0.92    0.05 
   1  -2  -6    0.92    0.04 
   0  -2  -6    6.40    0.13 
   0  -2  -6    6.52    0.12 
  -1  -2  -6    1.58    0.06 
  -1  -2  -6    1.54    0.05 
  -2  -2  -6   19.09    0.31 
  -2  -2  -6   18.56    0.24 
  -3  -2  -6    1.91    0.09 
  -3  -2  -6    2.05    0.06 
  -4  -2  -6    1.59    0.06 
  -4  -2  -6    1.45    0.08 
  -5  -2  -6    0.48    0.06 
  -6  -2  -6    2.39    0.12 
  -7  -2  -6    1.02    0.10 
   5  -3  -6    0.33    0.07 
   4  -3  -6    0.90    0.08 
   3  -3  -6    7.10    0.19 
   2  -3  -6    0.41    0.05 
   1  -3  -6    1.05    0.06 
   1  -3  -6    1.08    0.05 
   0  -3  -6    0.10    0.02 
   0  -3  -6    0.11    0.02 
  -1  -3  -6    2.80    0.09 
  -1  -3  -6    2.86    0.07 
  -2  -3  -6    2.14    0.06 
  -2  -3  -6    2.12    0.09 
  -3  -3  -6    1.14    0.07 
  -3  -3  -6    1.04    0.05 
  -4  -3  -6    3.36    0.10 
  -4  -3  -6    3.29    0.13 
  -5  -3  -6    0.17    0.03 
  -5  -3  -6    0.23    0.05 
  -6  -3  -6    0.00    0.03 
  -7  -3  -6   -0.02    0.03 
   5  -4  -6    0.28    0.06 
   4  -4  -6    2.37    0.12 
   3  -4  -6    2.11    0.11 
   2  -4  -6    0.10    0.03 
   1  -4  -6    1.00    0.06 
   0  -4  -6    0.77    0.05 
   0  -4  -6    0.82    0.05 
  -1  -4  -6    0.90    0.05 
  -1  -4  -6    0.86    0.06 
  -2  -4  -6   14.69    0.28 
  -2  -4  -6   14.39    0.22 
  -3  -4  -6   19.80    0.29 
  -3  -4  -6   20.15    0.36 
  -4  -4  -6   23.64    0.35 
  -4  -4  -6   23.62    0.43 
  -5  -4  -6    2.03    0.09 
  -5  -4  -6    2.06    0.12 
  -6  -4  -6   -0.05    0.03 
  -7  -4  -6   -0.06    0.04 
   4  -5  -6    0.34    0.06 
   3  -5  -6    0.35    0.06 
   2  -5  -6    0.55    0.06 
   1  -5  -6    0.22    0.04 
   0  -5  -6    0.08    0.03 
   0  -5  -6    0.05    0.02 
  -1  -5  -6    1.78    0.07 
  -1  -5  -6    1.89    0.09 
  -2  -5  -6    1.14    0.08 
  -2  -5  -6    1.15    0.06 
  -3  -5  -6    2.23    0.11 
  -3  -5  -6    2.13    0.08 
  -4  -5  -6    1.01    0.09 
  -4  -5  -6    1.05    0.06 
  -5  -5  -6    1.47    0.08 
  -5  -5  -6    1.54    0.11 
  -6  -5  -6    0.00    0.04 
  -6  -5  -6    0.02    0.03 
  -7  -5  -6   -0.06    0.04 
   3  -6  -6    0.07    0.04 
   2  -6  -6    0.01    0.03 
   1  -6  -6    3.69    0.13 
   0  -6  -6    0.20    0.04 
  -1  -6  -6   21.03    0.33 
  -1  -6  -6   21.09    0.36 
  -2  -6  -6   15.91    0.27 
  -2  -6  -6   16.12    0.32 
  -3  -6  -6    0.90    0.08 
  -3  -6  -6    0.79    0.06 
  -4  -6  -6    0.27    0.04 
  -5  -6  -6    2.40    0.11 
  -6  -6  -6    0.04    0.04 
  -6  -6  -6    0.00    0.04 
  -7  -6  -6    0.25    0.07 
   3  -7  -6   -0.01    0.04 
   2  -7  -6    0.06    0.04 
   1  -7  -6    1.87    0.10 
   0  -7  -6    0.74    0.06 
  -1  -7  -6    0.03    0.03 
  -2  -7  -6    1.40    0.08 
  -2  -7  -6    1.21    0.09 
  -3  -7  -6    1.32    0.10 
  -3  -7  -6    1.42    0.08 
  -4  -7  -6    0.30    0.05 
  -5  -7  -6    0.10    0.04 
  -6  -7  -6    0.61    0.07 
  -7  -7  -6    0.81    0.09 
  -7  -7  -6    0.73    0.10 
   2  -8  -6   -0.01    0.04 
   1  -8  -6    0.49    0.07 
   0  -8  -6    1.22    0.08 
  -1  -8  -6    0.10    0.03 
  -2  -8  -6    0.18    0.06 
  -2  -8  -6    0.18    0.04 
  -3  -8  -6    0.02    0.04 
  -3  -8  -6    0.05    0.03 
  -4  -8  -6    0.09    0.04 
  -5  -8  -6   -0.04    0.03 
  -6  -8  -6    0.66    0.08 
   0  -9  -6    0.14    0.05 
  -1  -9  -6    0.16    0.04 
  -2  -9  -6    0.00    0.03 
  -3  -9  -6    0.50    0.08 
  -3  -9  -6    0.61    0.07 
  -4  -9  -6    0.64    0.07 
  -5  -9  -6    0.48    0.07 
   3   8  -7    0.13    0.08 
   2   8  -7    0.13    0.08 
   1   8  -7    0.36    0.09 
   4   7  -7    0.06    0.07 
  -4  -7   7   -0.02    0.04 
   3   7  -7    0.13    0.07 
   2   7  -7    0.05    0.05 
   1   7  -7    0.44    0.08 
   0   7  -7    0.20    0.06 
  -2   7  -7    0.02    0.04 
  -3   7  -7    0.02    0.05 
  -5  -6   7   -0.01    0.04 
   4   6  -7    0.02    0.05 
  -4  -6   7   -0.01    0.03 
   3   6  -7    0.27    0.07 
  -3  -6   7    0.28    0.05 
   2   6  -7    0.16    0.06 
   1   6  -7    0.98    0.10 
   0   6  -7    0.20    0.05 
  -1   6  -7    0.93    0.08 
  -1   6  -7    0.93    0.08 
  -2   6  -7    0.13    0.05 
  -3   6  -7    0.12    0.05 
  -4   6  -7    0.20    0.07 
   5   5  -7    0.03    0.06 
  -5  -5   7   -0.01    0.03 
   4   5  -7    0.24    0.07 
  -4  -5   7    0.25    0.05 
   3   5  -7    2.94    0.16 
  -3  -5   7    2.91    0.12 
   2   5  -7    0.88    0.09 
  -2  -5   7    0.97    0.07 
   1   5  -7   -0.01    0.03 
   0   5  -7    3.01    0.13 
  -1   5  -7    1.79    0.10 
  -1   5  -7    1.64    0.10 
  -2   5  -7    0.14    0.04 
  -3   5  -7    0.19    0.05 
  -4   5  -7    0.17    0.06 
  -5   5  -7    0.08    0.06 
   5   4  -7    0.00    0.03 
   5   4  -7   -0.01    0.05 
   4   4  -7    0.19    0.05 
   4   4  -7    0.26    0.07 
   3   4  -7    0.22    0.05 
  -3  -4   7    0.14    0.04 
   2   4  -7   10.65    0.27 
  -2  -4   7   10.81    0.22 
   1   4  -7   11.60    0.27 
   0   4  -7    0.03    0.02 
  -1   4  -7    0.43    0.05 
  -1   4  -7    0.40    0.05 
  -2   4  -7    0.05    0.03 
  -2   4  -7    0.03    0.03 
  -3   4  -7    0.12    0.04 
  -4   4  -7    0.06    0.04 
  -5   4  -7    0.01    0.05 
  -6   4  -7   -0.04    0.05 
   5   3  -7    0.08    0.04 
   5   3  -7    0.04    0.05 
   4   3  -7    2.24    0.12 
   4   3  -7    2.48    0.14 
   3   3  -7    0.01    0.03 
   3   3  -7    0.01    0.03 
   2   3  -7   27.89    0.42 
   2   3  -7   29.02    0.48 
   1   3  -7   18.35    0.34 
  -1  -3   7   18.55    0.28 
   0   3  -7    7.35    0.18 
   0   3  -7    7.31    0.16 
  -1   3  -7    0.12    0.03 
  -1   3  -7    0.16    0.03 
  -2   3  -7    2.68    0.10 
  -2   3  -7    2.28    0.11 
  -3   3  -7    1.98    0.11 
  -3   3  -7    1.73    0.08 
  -4   3  -7    0.18    0.05 
  -5   3  -7    1.88    0.12 
  -6   3  -7    0.45    0.08 
   5   2  -7    0.12    0.04 
   5   2  -7    0.10    0.05 
   4   2  -7    0.00    0.03 
   4   2  -7   -0.02    0.03 
   3   2  -7    0.77    0.06 
   3   2  -7    0.73    0.07 
   2   2  -7    4.04    0.14 
   2   2  -7    4.08    0.12 
   1   2  -7    0.50    0.05 
   1   2  -7    0.57    0.04 
   0   2  -7    0.96    0.06 
   0   2  -7    0.90    0.05 
   0  -2   7    0.89    0.04 
  -1   2  -7    0.23    0.04 
  -1   2  -7    0.28    0.03 
  -2   2  -7    5.47    0.16 
  -2   2  -7    5.64    0.13 
  -3   2  -7    0.04    0.04 
  -3   2  -7    0.03    0.03 
  -4   2  -7    7.56    0.23 
  -5   2  -7   -0.03    0.03 
  -6   2  -7    0.55    0.09 
   5   1  -7   -0.02    0.03 
   4   1  -7    1.78    0.10 
   4   1  -7    1.65    0.10 
   3   1  -7    0.01    0.02 
   3   1  -7   -0.02    0.02 
   2   1  -7    1.22    0.07 
   2   1  -7    1.05    0.06 
   1   1  -7    1.38    0.07 
   1   1  -7    1.40    0.06 
   0   1  -7   18.65    0.29 
   0   1  -7   18.57    0.25 
  -1   1  -7    0.73    0.05 
  -2   1  -7   14.92    0.24 
  -3   1  -7   23.54    0.35 
  -4   1  -7   56.27    0.82 
  -4   1  -7   57.39    0.73 
  -5   1  -7    2.68    0.14 
  -6   1  -7    0.16    0.06 
  -7   1  -7    0.04    0.05 
   5   0  -7    0.19    0.05 
   4   0  -7    0.46    0.06 
   3   0  -7    0.47    0.05 
   3   0  -7    0.42    0.05 
   2   0  -7    1.78    0.08 
   2   0  -7    1.74    0.08 
   1   0  -7    0.95    0.05 
   1   0  -7    0.91    0.05 
   0   0  -7    6.89    0.13 
   0   0  -7    6.71    0.14 
  -1   0  -7   23.86    0.28 
  -1   0  -7   23.65    0.34 
  -2   0  -7    3.88    0.10 
  -3   0  -7    1.83    0.08 
  -4   0  -7    0.24    0.04 
  -5   0  -7    1.28    0.08 
  -5   0  -7    1.05    0.09 
  -6   0  -7    0.07    0.04 
  -7   0  -7   -0.04    0.04 
   5  -1  -7    0.02    0.04 
   4  -1  -7    0.15    0.04 
   3  -1  -7    0.89    0.07 
   2  -1  -7    0.24    0.04 
   2  -1  -7    0.22    0.03 
   1  -1  -7    7.31    0.15 
   1  -1  -7    7.76    0.15 
   0  -1  -7    0.14    0.02 
   0  -1  -7    0.16    0.02 
  -1  -1  -7    7.60    0.15 
  -1  -1  -7    7.81    0.12 
  -2  -1  -7    5.06    0.08 
  -3  -1  -7    0.03    0.02 
  -4  -1  -7    0.13    0.03 
  -5  -1  -7    0.41    0.05 
  -6  -1  -7   -0.01    0.04 
  -6  -1  -7    0.03    0.03 
  -7  -1  -7    0.07    0.05 
   5  -2  -7    0.31    0.07 
   4  -2  -7    0.91    0.08 
   3  -2  -7    0.59    0.06 
   2  -2  -7    1.13    0.07 
   2  -2  -7    1.02    0.05 
   1  -2  -7    5.03    0.11 
   1  -2  -7    4.89    0.13 
   0  -2  -7    3.65    0.09 
   0  -2  -7    3.46    0.09 
  -1  -2  -7    0.57    0.04 
  -1  -2  -7    0.58    0.03 
  -2  -2  -7   17.40    0.29 
  -3  -2  -7    0.03    0.02 
  -3  -2  -7    0.02    0.01 
  -4  -2  -7    0.08    0.03 
  -5  -2  -7    0.03    0.03 
  -6  -2  -7    0.74    0.07 
  -7  -2  -7    0.53    0.08 
   5  -3  -7    0.07    0.04 
   4  -3  -7    1.94    0.11 
   3  -3  -7    7.30    0.20 
   2  -3  -7    2.35    0.10 
   1  -3  -7    7.32    0.16 
   1  -3  -7    7.39    0.14 
   0  -3  -7    2.98    0.09 
   0  -3  -7    2.68    0.08 
  -1  -3  -7    0.13    0.02 
  -1  -3  -7    0.19    0.03 
  -2  -3  -7    0.12    0.02 
  -2  -3  -7    0.16    0.03 
  -3  -3  -7    2.68    0.07 
  -3  -3  -7    2.76    0.11 
  -4  -3  -7    0.68    0.04 
  -4  -3  -7    0.86    0.07 
  -5  -3  -7    0.08    0.04 
  -6  -3  -7    0.00    0.03 
  -7  -3  -7    0.61    0.08 
   4  -4  -7    4.69    0.18 
   3  -4  -7   12.96    0.29 
   2  -4  -7    0.55    0.06 
   1  -4  -7    0.17    0.03 
   0  -4  -7    2.40    0.08 
   0  -4  -7    2.19    0.08 
  -1  -4  -7    3.98    0.10 
  -1  -4  -7    4.30    0.12 
  -2  -4  -7    0.71    0.04 
  -2  -4  -7    0.70    0.06 
  -3  -4  -7    2.76    0.12 
  -3  -4  -7    2.81    0.08 
  -4  -4  -7    4.83    0.12 
  -4  -4  -7    4.83    0.17 
  -5  -4  -7    0.06    0.04 
  -6  -4  -7    0.02    0.04 
  -7  -4  -7    0.44    0.07 
   4  -5  -7    0.01    0.04 
   3  -5  -7    0.48    0.07 
   2  -5  -7    0.29    0.05 
   1  -5  -7    0.03    0.03 
   0  -5  -7   -0.03    0.02 
   0  -5  -7    0.01    0.02 
  -1  -5  -7   -0.02    0.02 
  -1  -5  -7   -0.01    0.02 
  -2  -5  -7    1.92    0.10 
  -2  -5  -7    2.08    0.08 
  -3  -5  -7    7.57    0.16 
  -3  -5  -7    7.43    0.21 
  -4  -5  -7    0.29    0.04 
  -4  -5  -7    0.24    0.05 
  -5  -5  -7    0.14    0.04 
  -5  -5  -7    0.18    0.05 
  -6  -5  -7    0.01    0.04 
  -7  -5  -7    0.06    0.05 
   3  -6  -7    0.01    0.03 
   2  -6  -7    0.41    0.06 
   1  -6  -7    0.47    0.06 
   0  -6  -7    0.07    0.03 
  -1  -6  -7    9.39    0.21 
  -1  -6  -7    9.00    0.19 
  -2  -6  -7   33.34    0.53 
  -2  -6  -7   33.27    0.46 
  -3  -6  -7    7.11    0.17 
  -3  -6  -7    7.31    0.22 
  -4  -6  -7    0.02    0.03 
  -4  -6  -7    0.04    0.04 
  -5  -6  -7    0.16    0.04 
  -5  -6  -7    0.16    0.06 
  -6  -6  -7    0.06    0.05 
  -6  -6  -7    0.02    0.03 
  -7  -6  -7    0.09    0.06 
   2  -7  -7    0.00    0.03 
   1  -7  -7    0.08    0.04 
   0  -7  -7    0.46    0.06 
  -1  -7  -7    0.10    0.03 
  -2  -7  -7    1.31    0.10 
  -2  -7  -7    1.24    0.07 
  -3  -7  -7    1.43    0.08 
  -3  -7  -7    1.30    0.10 
  -4  -7  -7    1.01    0.07 
  -4  -7  -7    0.90    0.09 
  -5  -7  -7    0.06    0.04 
  -5  -7  -7   -0.02    0.04 
  -6  -7  -7   -0.01    0.04 
  -6  -7  -7   -0.04    0.04 
  -7  -7  -7   -0.05    0.06 
   1  -8  -7    0.67    0.07 
   0  -8  -7    0.94    0.08 
  -1  -8  -7    0.54    0.06 
  -2  -8  -7    0.40    0.05 
  -3  -8  -7    0.23    0.06 
  -3  -8  -7    0.29    0.05 
  -4  -8  -7   -0.02    0.03 
  -4  -8  -7    0.03    0.05 
  -5  -8  -7    0.01    0.05 
  -5  -8  -7    0.00    0.04 
  -6  -8  -7    0.52    0.10 
  -6  -8  -7    0.52    0.07 
   0  -9  -7    0.07    0.04 
  -1  -9  -7    0.11    0.04 
  -2  -9  -7   -0.01    0.03 
  -3  -9  -7    0.19    0.05 
  -3  -9  -7    0.22    0.07 
  -4  -9  -7    0.10    0.06 
  -4  -9  -7    0.03    0.04 
  -5  -9  -7    0.14    0.07 
  -5  -9  -7    0.11    0.05 
  -4 -10  -7   -0.04    0.06 
   2   8  -8    0.48    0.11 
   1   8  -8    1.59    0.15 
   3   7  -8    0.15    0.08 
   2   7  -8    0.41    0.09 
   1   7  -8    0.18    0.07 
   0   7  -8    0.19    0.06 
  -2   7  -8    0.18    0.06 
   4   6  -8    1.12    0.13 
   3   6  -8    1.24    0.12 
   2   6  -8    0.07    0.05 
   1   6  -8    0.05    0.04 
   0   6  -8    0.08    0.05 
  -1   6  -8    0.09    0.05 
  -2   6  -8    0.03    0.04 
  -3   6  -8    0.55    0.08 
  -4   6  -8    1.15    0.12 
   5   5  -8    0.36    0.09 
  -5  -5   8    0.39    0.07 
   4   5  -8    0.06    0.06 
  -4  -5   8    0.03    0.03 
   3   5  -8    0.45    0.08 
  -3  -5   8    0.43    0.06 
   2   5  -8    0.05    0.04 
   1   5  -8    0.02    0.03 
   0   5  -8    0.73    0.08 
  -1   5  -8    0.75    0.07 
  -1   5  -8    0.79    0.07 
  -2   5  -8    0.05    0.03 
  -3   5  -8    0.06    0.04 
  -4   5  -8   -0.03    0.04 
  -5   5  -8    0.09    0.06 
   5   4  -8    0.04    0.05 
   5   4  -8    0.08    0.06 
   4   4  -8    0.76    0.10 
   3   4  -8    1.29    0.11 
   2   4  -8    0.80    0.08 
   1   4  -8    9.59    0.25 
   0   4  -8    0.48    0.06 
  -1   4  -8    5.84    0.17 
  -1   4  -8    5.90    0.17 
  -2   4  -8    2.28    0.10 
  -2   4  -8    2.16    0.11 
  -3   4  -8    0.15    0.05 
  -4   4  -8    0.00    0.04 
  -5   4  -8    0.34    0.07 
   5   3  -8    0.51    0.07 
   5   3  -8    0.43    0.08 
   4   3  -8    1.16    0.10 
   4   3  -8    1.18    0.09 
   3   3  -8   -0.01    0.03 
   3   3  -8    0.00    0.03 
   2   3  -8    6.89    0.17 
   2   3  -8    6.50    0.20 
   1   3  -8   14.00    0.29 
   0   3  -8    0.61    0.06 
  -1   3  -8    0.39    0.05 
  -1   3  -8    0.34    0.05 
  -2   3  -8    0.16    0.04 
  -2   3  -8    0.11    0.03 
  -3   3  -8    0.01    0.02 
  -3   3  -8    0.00    0.03 
  -4   3  -8    0.09    0.05 
  -5   3  -8    0.11    0.05 
  -6   3  -8    0.32    0.08 
   5   2  -8    0.03    0.03 
   4   2  -8   -0.04    0.03 
   4   2  -8   -0.03    0.03 
   3   2  -8    4.88    0.17 
   3   2  -8    4.50    0.15 
   2   2  -8    0.10    0.03 
   2   2  -8    0.06    0.04 
   1   2  -8   11.35    0.20 
   1   2  -8   11.28    0.24 
   0   2  -8    0.20    0.03 
   0   2  -8    0.23    0.03 
  -1   2  -8    0.06    0.02 
  -1   2  -8    0.05    0.03 
  -2   2  -8    5.13    0.14 
  -2   2  -8    5.24    0.16 
  -3   2  -8    0.54    0.05 
  -3   2  -8    0.60    0.07 
  -4   2  -8    0.06    0.04 
  -4   2  -8    0.09    0.03 
  -5   2  -8    0.04    0.04 
  -6   2  -8    0.36    0.08 
   5   1  -8    0.05    0.04 
   4   1  -8    2.59    0.13 
   4   1  -8    2.54    0.13 
   3   1  -8    4.97    0.16 
   3   1  -8    4.75    0.15 
   2   1  -8    1.59    0.08 
   2   1  -8    1.50    0.08 
   1   1  -8    1.09    0.07 
   1   1  -8    0.93    0.05 
   0   1  -8    0.01    0.01 
   0   1  -8    0.01    0.02 
  -1   1  -8    1.63    0.07 
  -2   1  -8    1.10    0.06 
  -3   1  -8   20.12    0.32 
  -4   1  -8   13.86    0.25 
  -4   1  -8   13.66    0.32 
  -5   1  -8    0.05    0.04 
  -6   1  -8    1.25    0.11 
  -7   1  -8    0.06    0.06 
   5   0  -8   -0.04    0.03 
   4   0  -8    0.07    0.04 
   3   0  -8    1.42    0.09 
   3   0  -8    1.62    0.09 
   2   0  -8    1.39    0.07 
   2   0  -8    1.46    0.08 
   1   0  -8    1.95    0.08 
   1   0  -8    2.03    0.08 
   0   0  -8    0.15    0.03 
   0   0  -8    0.13    0.02 
  -1   0  -8    1.43    0.07 
  -2   0  -8    0.05    0.02 
  -3   0  -8   16.35    0.28 
  -4   0  -8    0.03    0.03 
  -5   0  -8    0.00    0.04 
  -5   0  -8   -0.02    0.03 
  -6   0  -8    0.02    0.05 
  -7   0  -8    0.03    0.05 
   5  -1  -8    0.25    0.06 
   4  -1  -8    0.25    0.05 
   3  -1  -8    0.13    0.04 
   2  -1  -8   -0.02    0.02 
   2  -1  -8    0.01    0.02 
   1  -1  -8    3.12    0.10 
   1  -1  -8    3.32    0.10 
   0  -1  -8    0.57    0.04 
   0  -1  -8    0.62    0.04 
  -1  -1  -8    3.28    0.10 
  -1  -1  -8    3.35    0.08 
  -2  -1  -8   58.51    0.75 
  -3  -1  -8    0.01    0.02 
  -4  -1  -8    2.66    0.11 
  -5  -1  -8    0.25    0.04 
  -6  -1  -8    0.19    0.06 
  -6  -1  -8    0.10    0.04 
  -7  -1  -8    0.03    0.05 
   5  -2  -8    0.19    0.06 
   4  -2  -8    0.04    0.04 
   3  -2  -8    0.09    0.03 
   2  -2  -8    1.00    0.07 
   2  -2  -8    0.83    0.06 
   1  -2  -8    0.18    0.03 
   1  -2  -8    0.18    0.03 
   0  -2  -8    7.88    0.15 
   0  -2  -8    7.81    0.16 
  -1  -2  -8    0.05    0.02 
  -1  -2  -8    0.09    0.02 
  -2  -2  -8    7.82    0.12 
  -2  -2  -8    7.70    0.18 
  -4  -2  -8    0.09    0.03 
  -5  -2  -8    0.10    0.04 
  -6  -2  -8    0.19    0.05 
  -7  -2  -8    0.08    0.05 
   4  -3  -8    0.02    0.04 
   3  -3  -8    0.19    0.05 
   2  -3  -8    0.72    0.07 
   1  -3  -8    7.47    0.15 
   1  -3  -8    7.23    0.17 
   0  -3  -8    3.15    0.10 
   0  -3  -8    3.32    0.10 
  -1  -3  -8    4.39    0.12 
  -1  -3  -8    4.58    0.11 
  -2  -3  -8    1.08    0.07 
  -2  -3  -8    1.15    0.05 
  -3  -3  -8    0.41    0.05 
  -3  -3  -8    0.42    0.03 
  -4  -3  -8    1.55    0.09 
  -5  -3  -8    0.03    0.03 
  -6  -3  -8    0.23    0.05 
  -7  -3  -8    0.68    0.08 
   4  -4  -8    0.35    0.07 
   3  -4  -8    2.30    0.12 
   2  -4  -8    0.08    0.04 
   1  -4  -8    1.32    0.08 
   0  -4  -8    3.41    0.10 
   0  -4  -8    3.47    0.11 
  -1  -4  -8    0.16    0.03 
  -1  -4  -8    0.20    0.03 
  -2  -4  -8    0.20    0.04 
  -2  -4  -8    0.21    0.03 
  -3  -4  -8    0.53    0.04 
  -3  -4  -8    0.46    0.06 
  -4  -4  -8   -0.02    0.03 
  -5  -4  -8    0.01    0.04 
  -6  -4  -8    0.75    0.08 
  -7  -4  -8    0.61    0.08 
   3  -5  -8    1.07    0.09 
   2  -5  -8    0.50    0.06 
   1  -5  -8    0.47    0.06 
   0  -5  -8   -0.05    0.02 
  -1  -5  -8    0.52    0.05 
  -1  -5  -8    0.48    0.05 
  -2  -5  -8    0.28    0.04 
  -2  -5  -8    0.26    0.05 
  -3  -5  -8    0.96    0.08 
  -3  -5  -8    0.98    0.06 
  -4  -5  -8    1.93    0.12 
  -4  -5  -8    1.85    0.08 
  -5  -5  -8    0.24    0.06 
  -6  -5  -8    0.16    0.05 
  -7  -5  -8    0.05    0.05 
   3  -6  -8    0.92    0.09 
   2  -6  -8    0.08    0.04 
   1  -6  -8    0.10    0.04 
   0  -6  -8    0.13    0.04 
  -1  -6  -8    1.06    0.07 
  -1  -6  -8    1.05    0.07 
  -2  -6  -8   14.04    0.30 
  -2  -6  -8   13.96    0.25 
  -3  -6  -8    0.11    0.03 
  -3  -6  -8    0.23    0.05 
  -4  -6  -8   11.10    0.22 
  -4  -6  -8   11.09    0.29 
  -5  -6  -8    1.31    0.08 
  -5  -6  -8    1.16    0.11 
  -6  -6  -8   -0.01    0.04 
  -7  -6  -8    0.00    0.05 
   2  -7  -8    0.21    0.05 
   1  -7  -8    0.01    0.03 
   0  -7  -8    0.03    0.03 
  -1  -7  -8    1.68    0.09 
  -2  -7  -8    3.35    0.12 
  -2  -7  -8    3.52    0.14 
  -3  -7  -8    0.54    0.06 
  -3  -7  -8    0.65    0.08 
  -4  -7  -8    0.09    0.05 
  -4  -7  -8    0.13    0.04 
  -5  -7  -8   -0.06    0.04 
  -5  -7  -8    0.00    0.03 
  -6  -7  -8    0.00    0.05 
  -7  -7  -8    0.01    0.06 
   1  -8  -8    0.18    0.05 
   0  -8  -8    0.60    0.07 
  -1  -8  -8    0.04    0.04 
  -2  -8  -8    3.38    0.13 
  -3  -8  -8    0.63    0.08 
  -3  -8  -8    0.52    0.06 
  -4  -8  -8   -0.03    0.05 
  -4  -8  -8    0.04    0.03 
  -5  -8  -8   -0.03    0.03 
  -5  -8  -8   -0.02    0.05 
  -6  -8  -8   -0.01    0.04 
  -6  -8  -8   -0.01    0.06 
  -1  -9  -8    0.28    0.06 
  -2  -9  -8    0.29    0.05 
  -3  -9  -8    0.15    0.05 
  -3  -9  -8    0.07    0.06 
  -4  -9  -8    0.07    0.04 
  -4  -9  -8    0.05    0.06 
  -5  -9  -8    0.01    0.06 
  -5  -9  -8    0.13    0.05 
  -4 -10  -8    0.06    0.06 
   3   7  -9    0.00    0.06 
   2   7  -9    0.19    0.08 
   1   7  -9    0.05    0.06 
   0   7  -9    0.32    0.08 
   4   6  -9    0.59    0.11 
   3   6  -9    0.27    0.08 
   2   6  -9    0.15    0.07 
   1   6  -9    0.50    0.08 
   0   6  -9    0.14    0.06 
  -1   6  -9    0.02    0.04 
  -2   6  -9   -0.01    0.04 
  -3   6  -9    0.71    0.09 
   4   5  -9    0.06    0.06 
   3   5  -9    0.18    0.06 
   2   5  -9    0.04    0.04 
   1   5  -9    0.13    0.05 
   0   5  -9   -0.03    0.03 
  -1   5  -9    0.01    0.03 
  -2   5  -9    0.01    0.03 
  -3   5  -9   -0.01    0.04 
  -4   5  -9    0.17    0.06 
   5   4  -9    0.44    0.09 
   4   4  -9    0.09    0.05 
  -4  -4   9    0.08    0.04 
   3   4  -9    0.07    0.05 
   2   4  -9    0.48    0.07 
   1   4  -9    0.04    0.03 
   0   4  -9    0.05    0.03 
  -1   4  -9    2.57    0.12 
  -1   4  -9    2.97    0.13 
  -2   4  -9    0.25    0.05 
  -2   4  -9    0.27    0.05 
  -3   4  -9    0.23    0.06 
  -4   4  -9    0.13    0.06 
  -5   4  -9    0.00    0.05 
   5   3  -9    0.15    0.06 
   5   3  -9    0.12    0.06 
   4   3  -9    0.02    0.03 
   4   3  -9    0.04    0.05 
   3   3  -9    1.18    0.08 
   3   3  -9    1.26    0.10 
   2   3  -9    0.18    0.05 
   1   3  -9    0.74    0.07 
   0   3  -9    3.47    0.13 
  -1   3  -9    2.92    0.12 
  -1   3  -9    2.92    0.12 
  -2   3  -9    1.70    0.10 
  -2   3  -9    1.69    0.09 
  -3   3  -9    0.01    0.02 
  -3   3  -9   -0.01    0.03 
  -4   3  -9    0.22    0.06 
  -5   3  -9    0.04    0.05 
  -6   3  -9    0.08    0.06 
   5   2  -9    0.01    0.04 
   4   2  -9    0.10    0.04 
   4   2  -9    0.14    0.05 
   3   2  -9    0.01    0.03 
   3   2  -9    0.03    0.03 
   2   2  -9    0.17    0.04 
   2   2  -9    0.19    0.05 
   1   2  -9   21.54    0.38 
   0   2  -9    2.41    0.10 
  -1   2  -9    3.12    0.12 
  -1   2  -9    3.11    0.11 
  -2   2  -9    0.48    0.06 
  -2   2  -9    0.42    0.05 
  -3   2  -9    1.34    0.10 
  -3   2  -9    1.23    0.08 
  -4   2  -9    0.26    0.06 
  -4   2  -9    0.25    0.04 
  -5   2  -9    0.26    0.07 
  -6   2  -9   -0.02    0.05 
   5   1  -9    0.06    0.04 
   4   1  -9    0.22    0.05 
   4   1  -9    0.29    0.06 
   3   1  -9    5.43    0.17 
   3   1  -9    5.27    0.18 
   2   1  -9    4.67    0.15 
   2   1  -9    4.26    0.14 
   1   1  -9   21.12    0.33 
   1   1  -9   21.81    0.37 
   0   1  -9    7.00    0.17 
  -1   1  -9    1.48    0.07 
  -2   1  -9    0.43    0.05 
  -3   1  -9   12.67    0.24 
  -4   1  -9    0.53    0.05 
  -4   1  -9    0.49    0.07 
  -5   1  -9   -0.03    0.04 
  -6   1  -9    1.22    0.11 
   5   0  -9    0.12    0.05 
   4   0  -9    0.23    0.05 
   3   0  -9    0.01    0.03 
   3   0  -9    0.06    0.03 
   2   0  -9    0.12    0.03 
   2   0  -9    0.08    0.03 
   1   0  -9    0.08    0.03 
   1   0  -9    0.11    0.03 
   0   0  -9    0.00    0.02 
  -1   0  -9    3.31    0.11 
  -2   0  -9    1.74    0.08 
  -3   0  -9    0.18    0.04 
  -4   0  -9    2.03    0.10 
  -5   0  -9    0.13    0.05 
  -5   0  -9    0.20    0.05 
  -6   0  -9    0.26    0.07 
  -7   0  -9    0.02    0.05 
   5  -1  -9    0.00    0.04 
   4  -1  -9    0.08    0.04 
   3  -1  -9    0.21    0.05 
   2  -1  -9    0.13    0.03 
   2  -1  -9    0.17    0.03 
   1  -1  -9    1.60    0.08 
   1  -1  -9    1.61    0.07 
   0  -1  -9    0.05    0.02 
   0  -1  -9    0.07    0.02 
  -1  -1  -9    0.17    0.03 
  -2  -1  -9   10.92    0.22 
  -3  -1  -9    0.93    0.07 
  -4  -1  -9   37.69    0.56 
  -5  -1  -9    5.50    0.17 
  -6  -1  -9    0.06    0.04 
  -7  -1  -9    0.03    0.05 
   4  -2  -9    0.08    0.04 
   3  -2  -9    0.91    0.08 
   2  -2  -9    0.02    0.02 
   2  -2  -9    0.02    0.03 
   1  -2  -9    0.07    0.02 
   1  -2  -9    0.14    0.03 
   0  -2  -9    0.33    0.04 
   0  -2  -9    0.39    0.04 
  -1  -2  -9    8.94    0.16 
  -1  -2  -9    9.29    0.19 
  -2  -2  -9    6.03    0.16 
  -3  -2  -9    0.13    0.04 
  -4  -2  -9    0.40    0.05 
  -5  -2  -9    0.02    0.03 
  -6  -2  -9    0.01    0.03 
  -7  -2  -9   -0.03    0.05 
   4  -3  -9   -0.01    0.04 
   3  -3  -9    0.22    0.05 
   2  -3  -9    0.01    0.03 
   1  -3  -9    4.77    0.12 
   1  -3  -9    4.73    0.14 
   0  -3  -9    2.19    0.08 
   0  -3  -9    2.19    0.08 
  -1  -3  -9    0.75    0.06 
  -1  -3  -9    0.77    0.05 
  -2  -3  -9    4.75    0.10 
  -2  -3  -9    4.93    0.14 
  -4  -3  -9    0.46    0.06 
  -5  -3  -9    0.05    0.03 
  -6  -3  -9    0.06    0.04 
  -7  -3  -9    0.10    0.05 
   4  -4  -9    0.22    0.06 
   3  -4  -9    0.16    0.05 
   2  -4  -9   -0.01    0.03 
   1  -4  -9    5.57    0.16 
   0  -4  -9    2.17    0.08 
   0  -4  -9    2.28    0.09 
  -1  -4  -9    0.90    0.06 
  -1  -4  -9    0.81    0.06 
  -2  -4  -9    0.48    0.05 
  -2  -4  -9    0.59    0.04 
  -3  -4  -9    0.01    0.03 
  -4  -4  -9    0.18    0.05 
  -5  -4  -9    0.22    0.05 
  -6  -4  -9    0.00    0.04 
  -7  -4  -9    0.59    0.08 
   3  -5  -9    1.47    0.11 
   2  -5  -9    0.66    0.07 
   1  -5  -9    0.86    0.07 
   0  -5  -9    0.14    0.04 
  -1  -5  -9    0.78    0.07 
  -1  -5  -9    0.76    0.06 
  -2  -5  -9    1.16    0.06 
  -2  -5  -9    1.04    0.08 
  -3  -5  -9   -0.01    0.03 
  -3  -5  -9    0.01    0.02 
  -4  -5  -9    0.10    0.04 
  -5  -5  -9    0.01    0.04 
  -6  -5  -9    0.29    0.07 
  -7  -5  -9    0.14    0.06 
   2  -6  -9    2.14    0.12 
   1  -6  -9   -0.02    0.03 
   0  -6  -9   -0.02    0.03 
  -1  -6  -9    0.98    0.07 
  -1  -6  -9    0.87    0.07 
  -2  -6  -9    2.67    0.10 
  -2  -6  -9    2.70    0.12 
  -3  -6  -9    0.30    0.05 
  -3  -6  -9    0.44    0.06 
  -4  -6  -9    1.12    0.07 
  -4  -6  -9    0.84    0.09 
  -5  -6  -9    0.47    0.08 
  -6  -6  -9    0.42    0.08 
  -7  -6  -9    0.28    0.08 
   2  -7  -9   -0.02    0.04 
   1  -7  -9    0.03    0.04 
   0  -7  -9    0.28    0.05 
  -1  -7  -9    0.10    0.04 
  -2  -7  -9    0.63    0.06 
  -2  -7  -9    0.56    0.07 
  -3  -7  -9    1.48    0.11 
  -3  -7  -9    1.60    0.09 
  -4  -7  -9    0.07    0.05 
  -4  -7  -9    0.05    0.03 
  -5  -7  -9    0.01    0.05 
  -6  -7  -9    0.15    0.07 
   0  -8  -9    0.40    0.06 
  -1  -8  -9    0.39    0.06 
  -2  -8  -9    7.91    0.20 
  -3  -8  -9    5.62    0.17 
  -3  -8  -9    5.68    0.21 
  -4  -8  -9    0.04    0.04 
  -4  -8  -9   -0.02    0.05 
  -5  -8  -9    0.04    0.05 
  -5  -8  -9   -0.04    0.03 
  -6  -8  -9    0.17    0.07 
  -1  -9  -9    0.05    0.04 
  -2  -9  -9    0.53    0.07 
  -3  -9  -9    0.18    0.05 
  -4  -9  -9   -0.03    0.03 
  -4  -9  -9    0.00    0.05 
  -5  -9  -9   -0.08    0.05 
  -5  -9  -9    0.01    0.04 
   1   7 -10    1.37    0.14 
   0   7 -10    0.07    0.07 
   3   6 -10    0.04    0.06 
   2   6 -10    0.31    0.09 
   1   6 -10    1.22    0.12 
   0   6 -10    0.47    0.08 
  -1   6 -10    0.04    0.05 
  -3   6 -10    0.29    0.07 
   4   5 -10    0.20    0.08 
   3   5 -10    0.05    0.05 
   2   5 -10    0.00    0.05 
   1   5 -10   -0.04    0.04 
   0   5 -10    0.09    0.05 
  -1   5 -10    0.15    0.05 
  -2   5 -10   -0.02    0.03 
  -3   5 -10    0.33    0.07 
  -4   5 -10    0.00    0.06 
   4   4 -10    0.77    0.11 
   3   4 -10    1.33    0.12 
   2   4 -10    0.02    0.04 
   1   4 -10    0.36    0.06 
   0   4 -10    0.79    0.08 
  -1   4 -10    0.04    0.04 
  -2   4 -10    0.50    0.07 
  -2   4 -10    0.81    0.08 
  -3   4 -10   -0.02    0.04 
  -4   4 -10    0.61    0.09 
  -5   4 -10    0.45    0.09 
   4   3 -10    0.12    0.06 
   4   3 -10    0.02    0.04 
   3   3 -10    0.36    0.07 
   2   3 -10    0.64    0.08 
   1   3 -10    0.02    0.03 
   0   3 -10    0.62    0.07 
  -1   3 -10   -0.04    0.02 
  -2   3 -10    0.02    0.04 
  -2   3 -10    0.10    0.04 
  -3   3 -10    0.02    0.04 
  -3   3 -10    0.02    0.03 
  -4   3 -10    0.50    0.08 
  -5   3 -10    0.11    0.06 
   4   2 -10    0.19    0.06 
   4   2 -10    0.24    0.05 
   3   2 -10    0.03    0.03 
   3   2 -10    0.03    0.03 
   2   2 -10    1.09    0.09 
   1   2 -10    3.93    0.15 
   0   2 -10    4.13    0.14 
  -1   2 -10    0.61    0.06 
  -1   2 -10    0.75    0.07 
  -2   2 -10    2.23    0.12 
  -2   2 -10    2.15    0.10 
  -3   2 -10    0.19    0.05 
  -3   2 -10    0.30    0.05 
  -4   2 -10    0.02    0.03 
  -4   2 -10    0.06    0.05 
  -5   2 -10    0.03    0.05 
  -6   2 -10   -0.02    0.05 
   4   1 -10    0.95    0.09 
   3   1 -10   -0.01    0.03 
   3   1 -10    0.03    0.03 
   2   1 -10    0.80    0.08 
   2   1 -10    0.95    0.07 
   1   1 -10   16.32    0.32 
   0   1 -10    4.78    0.15 
  -1   1 -10    4.03    0.13 
  -2   1 -10    0.44    0.05 
  -3   1 -10    0.12    0.04 
  -4   1 -10    0.07    0.05 
  -4   1 -10    0.07    0.04 
  -5   1 -10   -0.03    0.04 
  -6   1 -10    1.03    0.11 
   4   0 -10   -0.02    0.03 
   3   0 -10    0.73    0.07 
   3   0 -10    0.71    0.07 
   2   0 -10    1.79    0.10 
   2   0 -10    1.83    0.09 
   1   0 -10    7.66    0.19 
   0   0 -10    2.63    0.10 
  -1   0 -10    0.79    0.06 
  -2   0 -10    7.81    0.18 
  -3   0 -10    0.25    0.04 
  -4   0 -10    0.70    0.06 
  -5   0 -10    0.47    0.06 
  -6   0 -10    0.01    0.05 
  -7   0 -10   -0.04    0.06 
   4  -1 -10    0.14    0.05 
   3  -1 -10    3.79    0.15 
   2  -1 -10    1.71    0.09 
   2  -1 -10    1.98    0.10 
   1  -1 -10    0.07    0.03 
   1  -1 -10    0.07    0.03 
   0  -1 -10    0.00    0.02 
  -1  -1 -10    3.15    0.11 
  -2  -1 -10    3.66    0.12 
  -3  -1 -10    1.46    0.08 
  -4  -1 -10   11.98    0.26 
  -5  -1 -10    8.17    0.22 
  -6  -1 -10    0.16    0.05 
  -7  -1 -10    0.08    0.06 
   4  -2 -10   -0.02    0.03 
   3  -2 -10    0.09    0.04 
   2  -2 -10   -0.05    0.02 
   1  -2 -10    0.03    0.02 
   1  -2 -10    0.00    0.02 
   0  -2 -10    0.64    0.05 
   0  -2 -10    0.69    0.05 
  -1  -2 -10    0.47    0.05 
  -2  -2 -10    0.50    0.05 
  -3  -2 -10    1.21    0.08 
  -4  -2 -10    0.40    0.06 
  -5  -2 -10    0.33    0.06 
  -6  -2 -10    0.40    0.07 
   4  -3 -10    0.07    0.05 
   3  -3 -10    0.11    0.05 
   2  -3 -10    0.11    0.04 
   1  -3 -10    0.04    0.03 
   1  -3 -10    0.03    0.02 
   0  -3 -10    0.10    0.03 
   0  -3 -10    0.06    0.03 
  -1  -3 -10    0.33    0.04 
  -1  -3 -10    0.34    0.04 
  -2  -3 -10   13.65    0.27 
  -3  -3 -10    1.74    0.10 
  -4  -3 -10    0.88    0.08 
  -5  -3 -10    0.16    0.05 
  -6  -3 -10    0.09    0.04 
  -7  -3 -10    0.02    0.04 
   3  -4 -10    0.21    0.05 
   2  -4 -10    0.34    0.06 
   1  -4 -10    0.15    0.04 
   0  -4 -10    0.47    0.05 
   0  -4 -10    0.60    0.05 
  -1  -4 -10    0.46    0.05 
  -1  -4 -10    0.34    0.05 
  -2  -4 -10    1.05    0.08 
  -3  -4 -10    0.05    0.03 
  -4  -4 -10    0.07    0.04 
  -5  -4 -10    0.21    0.05 
  -6  -4 -10   -0.02    0.03 
  -7  -4 -10    0.01    0.04 
   3  -5 -10    0.09    0.05 
   2  -5 -10    1.09    0.09 
   1  -5 -10    0.23    0.05 
   0  -5 -10    1.29    0.08 
  -1  -5 -10    0.26    0.04 
  -1  -5 -10    0.27    0.05 
  -2  -5 -10    1.16    0.08 
  -2  -5 -10    1.24    0.07 
  -3  -5 -10    0.17    0.05 
  -4  -5 -10    0.06    0.04 
  -5  -5 -10    0.11    0.05 
  -6  -5 -10    0.03    0.04 
  -7  -5 -10    0.07    0.05 
   2  -6 -10    1.11    0.10 
   1  -6 -10    0.06    0.04 
   0  -6 -10    0.20    0.05 
  -1  -6 -10    0.14    0.04 
  -1  -6 -10   -0.02    0.03 
  -2  -6 -10    0.20    0.05 
  -2  -6 -10    0.23    0.04 
  -3  -6 -10    0.38    0.06 
  -3  -6 -10    0.37    0.05 
  -4  -6 -10    0.12    0.05 
  -5  -6 -10    0.61    0.08 
  -6  -6 -10    0.07    0.05 
  -7  -6 -10    0.02    0.05 
   1  -7 -10    0.06    0.04 
   0  -7 -10    0.30    0.06 
  -1  -7 -10    0.49    0.06 
  -2  -7 -10    0.14    0.05 
  -2  -7 -10    0.08    0.04 
  -3  -7 -10    0.14    0.04 
  -3  -7 -10    0.13    0.05 
  -4  -7 -10    0.00    0.04 
  -5  -7 -10    0.03    0.05 
  -6  -7 -10    0.00    0.05 
   0  -8 -10    0.01    0.04 
  -1  -8 -10    0.13    0.05 
  -2  -8 -10    2.41    0.12 
  -3  -8 -10    1.20    0.09 
  -3  -8 -10    0.98    0.10 
  -4  -8 -10    0.15    0.05 
  -4  -8 -10    0.28    0.07 
  -5  -8 -10    0.38    0.08 
  -2  -9 -10    0.44    0.07 
  -3  -9 -10    0.33    0.06 
  -4  -9 -10    0.12    0.05 
  -4  -9 -10    0.24    0.07 
   2   6 -11    0.38    0.09 
   1   6 -11    0.91    0.12 
   0   6 -11    0.35    0.09 
  -1   6 -11    0.14    0.07 
   3   5 -11    0.15    0.07 
   2   5 -11    0.02    0.05 
   1   5 -11    0.45    0.08 
   0   5 -11   -0.03    0.04 
  -1   5 -11    0.01    0.04 
  -2   5 -11    0.03    0.05 
  -3   5 -11   -0.01    0.05 
   3   4 -11    0.28    0.08 
   2   4 -11    0.53    0.08 
   1   4 -11    0.00    0.04 
   0   4 -11    0.02    0.04 
  -1   4 -11    0.21    0.06 
  -2   4 -11   -0.02    0.03 
  -3   4 -11    0.06    0.05 
  -4   4 -11    1.65    0.13 
   4   3 -11    0.07    0.06 
   3   3 -11    0.05    0.04 
   2   3 -11    0.08    0.05 
   1   3 -11    0.11    0.05 
   0   3 -11    0.37    0.06 
  -1   3 -11    0.41    0.06 
  -2   3 -11    0.45    0.06 
  -2   3 -11    0.41    0.06 
  -3   3 -11    0.16    0.05 
  -3   3 -11    0.10    0.04 
  -4   3 -11    0.30    0.07 
  -5   3 -11    0.16    0.07 
   4   2 -11    0.22    0.06 
   3   2 -11    0.12    0.05 
   2   2 -11    0.06    0.04 
   1   2 -11    0.34    0.06 
   0   2 -11    1.16    0.09 
  -1   2 -11    2.85    0.12 
  -2   2 -11    1.52    0.10 
  -2   2 -11    1.38    0.09 
  -3   2 -11    0.12    0.05 
  -3   2 -11    0.29    0.05 
  -4   2 -11    0.02    0.05 
  -4   2 -11    0.00    0.03 
  -5   2 -11    0.04    0.05 
   4   1 -11    0.03    0.04 
   3   1 -11    0.07    0.04 
   2   1 -11    0.21    0.05 
   1   1 -11    2.68    0.13 
   0   1 -11    1.52    0.09 
  -1   1 -11    3.37    0.12 
  -2   1 -11    5.97    0.17 
  -3   1 -11    0.65    0.06 
  -4   1 -11    0.00    0.04 
  -4   1 -11    0.09    0.04 
  -5   1 -11   -0.01    0.04 
  -6   1 -11    0.13    0.06 
   4   0 -11    0.00    0.04 
   3   0 -11    0.06    0.04 
   3   0 -11    0.04    0.04 
   2   0 -11    0.08    0.04 
   1   0 -11    2.33    0.11 
   0   0 -11    2.91    0.12 
  -1   0 -11    0.90    0.07 
  -2   0 -11    1.33    0.08 
  -3   0 -11    0.31    0.05 
  -4   0 -11    0.04    0.04 
  -5   0 -11    0.35    0.06 
  -6   0 -11    0.02    0.05 
   4  -1 -11   -0.06    0.03 
   3  -1 -11    1.89    0.11 
   2  -1 -11    0.26    0.05 
   2  -1 -11    0.21    0.04 
   1  -1 -11    4.54    0.14 
   0  -1 -11    1.83    0.09 
  -1  -1 -11    0.04    0.03 
  -2  -1 -11    0.05    0.03 
  -3  -1 -11    3.83    0.13 
  -4  -1 -11    0.55    0.07 
  -5  -1 -11    1.06    0.09 
  -6  -1 -11    0.54    0.08 
   4  -2 -11    0.05    0.04 
   3  -2 -11    0.00    0.03 
   2  -2 -11    0.30    0.05 
   1  -2 -11    0.63    0.06 
   1  -2 -11    0.54    0.06 
   0  -2 -11    1.46    0.08 
  -1  -2 -11    0.44    0.05 
  -2  -2 -11    0.32    0.05 
  -3  -2 -11    0.07    0.04 
  -4  -2 -11    0.41    0.06 
  -5  -2 -11    0.15    0.06 
  -6  -2 -11    0.04    0.05 
   3  -3 -11    0.27    0.06 
   2  -3 -11    0.22    0.05 
   1  -3 -11    0.08    0.03 
   1  -3 -11    0.04    0.03 
   0  -3 -11    0.15    0.03 
   0  -3 -11    0.16    0.04 
  -1  -3 -11    0.02    0.03 
  -2  -3 -11    0.88    0.07 
  -3  -3 -11    4.39    0.16 
  -4  -3 -11    4.11    0.16 
  -5  -3 -11    6.12    0.20 
  -6  -3 -11    0.61    0.08 
  -7  -3 -11    0.10    0.05 
   3  -4 -11    0.05    0.04 
   2  -4 -11   -0.01    0.03 
   1  -4 -11    0.10    0.04 
   0  -4 -11   -0.03    0.02 
   0  -4 -11    0.04    0.03 
  -1  -4 -11    0.18    0.04 
  -2  -4 -11    1.11    0.08 
  -3  -4 -11    2.02    0.11 
  -4  -4 -11    0.62    0.07 
  -5  -4 -11   -0.02    0.03 
  -6  -4 -11   -0.01    0.04 
  -7  -4 -11    0.01    0.04 
   2  -5 -11    0.01    0.04 
   1  -5 -11    0.40    0.06 
   0  -5 -11    2.27    0.11 
  -1  -5 -11    0.41    0.05 
  -1  -5 -11    0.27    0.05 
  -2  -5 -11    0.63    0.07 
  -3  -5 -11    0.53    0.07 
  -4  -5 -11    0.08    0.04 
  -5  -5 -11    0.24    0.06 
  -6  -5 -11    0.10    0.05 
   2  -6 -11    0.12    0.06 
   1  -6 -11    0.44    0.07 
   0  -6 -11    2.09    0.11 
  -1  -6 -11    1.93    0.10 
  -2  -6 -11    0.02    0.04 
  -2  -6 -11   -0.01    0.03 
  -3  -6 -11    0.12    0.05 
  -4  -6 -11   -0.02    0.04 
  -5  -6 -11    0.09    0.05 
  -6  -6 -11    0.00    0.04 
   1  -7 -11    0.10    0.05 
   0  -7 -11    0.08    0.05 
  -1  -7 -11    0.32    0.06 
  -2  -7 -11    0.26    0.06 
  -2  -7 -11    0.21    0.05 
  -3  -7 -11    0.08    0.05 
  -4  -7 -11    0.05    0.05 
  -5  -7 -11    0.30    0.07 
  -6  -7 -11    0.17    0.07 
  -1  -8 -11    0.17    0.05 
  -2  -8 -11    0.36    0.06 
  -3  -8 -11    0.08    0.04 
  -3  -8 -11    0.07    0.05 
  -4  -8 -11    0.09    0.05 
  -5  -8 -11    1.08    0.12 
  -3  -9 -11    0.01    0.04 
   2   5 -12   -0.03    0.06 
   1   5 -12    0.03    0.06 
   0   5 -12    0.05    0.06 
  -1   5 -12    0.47    0.08 
  -2   5 -12    0.12    0.06 
   3   4 -12    0.07    0.06 
   2   4 -12    0.03    0.06 
   1   4 -12    0.18    0.06 
   0   4 -12    0.06    0.05 
  -1   4 -12    0.46    0.08 
  -2   4 -12    0.14    0.06 
  -3   4 -12    0.02    0.05 
   3   3 -12    0.03    0.05 
   2   3 -12    0.08    0.05 
   1   3 -12    0.27    0.07 
   0   3 -12    0.17    0.05 
  -1   3 -12   -0.05    0.03 
  -2   3 -12   -0.01    0.04 
  -3   3 -12    0.60    0.07 
  -3   3 -12    0.53    0.08 
  -4   3 -12    0.11    0.06 
   3   2 -12    0.37    0.07 
   2   2 -12    0.10    0.05 
   1   2 -12    0.48    0.07 
   0   2 -12    0.01    0.03 
  -1   2 -12    0.01    0.03 
  -2   2 -12    0.66    0.08 
  -2   2 -12    0.79    0.07 
  -3   2 -12    0.34    0.07 
  -3   2 -12    0.29    0.05 
  -4   2 -12    0.38    0.08 
  -4   2 -12    0.31    0.06 
  -5   2 -12    0.77    0.10 
   3   1 -12    0.07    0.04 
   2   1 -12    0.13    0.05 
   1   1 -12    0.09    0.04 
   0   1 -12    0.83    0.08 
  -1   1 -12    1.92    0.10 
  -2   1 -12    0.03    0.03 
  -3   1 -12   -0.02    0.03 
  -4   1 -12    0.06    0.04 
  -4   1 -12    0.07    0.05 
  -5   1 -12    0.22    0.07 
   4   0 -12    0.12    0.05 
   3   0 -12    0.10    0.05 
   2   0 -12    0.56    0.07 
   1   0 -12   -0.03    0.03 
   0   0 -12   10.92    0.25 
  -1   0 -12    2.59    0.11 
  -2   0 -12    2.72    0.11 
  -3   0 -12    0.92    0.08 
  -4   0 -12   -0.02    0.04 
  -5   0 -12    0.24    0.06 
  -6   0 -12   -0.04    0.05 
   3  -1 -12    0.06    0.04 
   2  -1 -12    0.34    0.06 
   1  -1 -12    3.59    0.14 
   0  -1 -12   12.18    0.26 
  -1  -1 -12    8.51    0.21 
  -2  -1 -12    0.33    0.05 
  -3  -1 -12    0.28    0.05 
  -4  -1 -12    0.35    0.06 
  -5  -1 -12    0.00    0.04 
  -6  -1 -12    0.57    0.08 
   3  -2 -12   -0.04    0.03 
   1  -2 -12    0.67    0.06 
   0  -2 -12    1.53    0.09 
  -1  -2 -12    0.13    0.04 
  -2  -2 -12    0.77    0.07 
  -3  -2 -12    0.01    0.03 
  -4  -2 -12    0.05    0.05 
  -5  -2 -12    0.36    0.07 
  -6  -2 -12    0.05    0.06 
   3  -3 -12    0.69    0.08 
   2  -3 -12    0.92    0.09 
   0  -3 -12    0.06    0.03 
  -1  -3 -12    0.55    0.06 
  -2  -3 -12    0.24    0.05 
  -3  -3 -12    0.02    0.04 
  -4  -3 -12    3.85    0.16 
  -5  -3 -12   10.04    0.28 
  -6  -3 -12    0.36    0.08 
   2  -4 -12    0.18    0.05 
   1  -4 -12    0.07    0.04 
   0  -4 -12    0.04    0.03 
  -1  -4 -12   -0.03    0.02 
  -2  -4 -12    0.99    0.08 
  -3  -4 -12    0.20    0.05 
  -4  -4 -12    0.43    0.07 
  -5  -4 -12    0.21    0.06 
  -6  -4 -12    0.04    0.04 
   2  -5 -12   -0.06    0.04 
   1  -5 -12    0.05    0.04 
   0  -5 -12    0.01    0.03 
  -1  -5 -12    0.01    0.03 
  -2  -5 -12    0.70    0.07 
  -3  -5 -12    2.15    0.13 
  -4  -5 -12    0.16    0.05 
  -5  -5 -12    0.30    0.07 
  -6  -5 -12    0.06    0.05 
   1  -6 -12    0.14    0.05 
   0  -6 -12    0.20    0.05 
  -2  -6 -12   -0.04    0.04 
  -3  -6 -12    0.06    0.05 
  -4  -6 -12    0.15    0.05 
  -5  -6 -12    0.01    0.04 
  -6  -6 -12    0.07    0.06 
   0  -7 -12    0.03    0.05 
  -1  -7 -12    0.28    0.06 
  -2  -7 -12    0.33    0.07 
  -3  -7 -12    0.00    0.04 
  -4  -7 -12    0.05    0.05 
  -5  -7 -12    0.01    0.05 
  -1  -8 -12    0.05    0.05 
  -3  -8 -12    0.08    0.05 
  -4  -8 -12    0.16    0.06 
   1   4 -13    0.77    0.10 
   0   4 -13    1.39    0.12 
  -1   4 -13    0.09    0.06 
  -2   4 -13    0.22    0.07 
   2   3 -13    0.08    0.06 
   1   3 -13    0.26    0.07 
   0   3 -13    0.01    0.04 
  -1   3 -13    0.08    0.05 
  -2   3 -13    0.05    0.05 
  -3   3 -13    0.17    0.06 
  -3   3 -13    0.28    0.06 
   3   2 -13    0.30    0.07 
   2   2 -13    0.49    0.08 
   1   2 -13    0.10    0.05 
   0   2 -13    0.00    0.04 
  -1   2 -13   -0.02    0.03 
  -2   2 -13    0.02    0.04 
  -3   2 -13    0.27    0.06 
  -3   2 -13    0.07    0.05 
  -4   2 -13    0.60    0.08 
  -4   2 -13    0.49    0.09 
   3   1 -13   -0.01    0.04 
   2   1 -13    0.04    0.04 
   1   1 -13    0.15    0.05 
   0   1 -13    0.54    0.07 
  -1   1 -13    0.01    0.03 
  -2   1 -13    0.08    0.04 
  -3   1 -13    0.11    0.05 
  -4   1 -13    0.12    0.05 
  -4   1 -13    0.14    0.06 
  -5   1 -13   -0.04    0.05 
  -5   1 -13   -0.04    0.05 
   2   0 -13    0.08    0.04 
   1   0 -13   -0.03    0.04 
   0   0 -13    0.49    0.07 
  -1   0 -13    0.52    0.07 
  -2   0 -13    2.11    0.11 
  -3   0 -13    0.06    0.04 
  -4   0 -13    0.04    0.04 
  -5   0 -13    0.16    0.07 
  -5   0 -13    0.12    0.05 
   2  -1 -13    0.02    0.04 
   1  -1 -13    1.23    0.10 
   0  -1 -13    4.94    0.16 
  -1  -1 -13    0.48    0.06 
  -2  -1 -13    2.42    0.12 
  -3  -1 -13    0.29    0.05 
  -4  -1 -13   -0.03    0.04 
  -5  -1 -13   -0.04    0.04 
  -6  -1 -13    0.21    0.07 
   1  -2 -13    0.27    0.05 
   0  -2 -13    1.12    0.08 
  -1  -2 -13    0.18    0.05 
  -2  -2 -13    0.06    0.04 
  -3  -2 -13    0.10    0.04 
  -4  -2 -13   -0.07    0.04 
  -5  -2 -13   -0.08    0.04 
  -6  -2 -13    0.13    0.06 
   0  -3 -13    1.14    0.08 
  -1  -3 -13    0.22    0.05 
  -2  -3 -13    0.08    0.04 
  -3  -3 -13    0.04    0.04 
  -4  -3 -13    0.01    0.04 
  -5  -3 -13    1.02    0.10 
  -6  -3 -13    0.36    0.08 
   0  -4 -13    0.40    0.05 
  -1  -4 -13    0.05    0.04 
  -2  -4 -13    0.47    0.06 
  -3  -4 -13    0.16    0.05 
  -4  -4 -13    0.34    0.07 
  -5  -4 -13    0.02    0.06 
  -6  -4 -13    0.18    0.07 
  -1  -5 -13    0.04    0.03 
  -2  -5 -13    0.13    0.05 
  -3  -5 -13    2.33    0.13 
  -4  -5 -13    0.12    0.06 
  -5  -5 -13    2.77    0.16 
  -6  -5 -13    0.37    0.08 
   1  -6 -13   -0.02    0.05 
  -2  -6 -13    0.16    0.05 
  -3  -6 -13    0.76    0.09 
  -4  -6 -13    0.05    0.05 
  -5  -6 -13   -0.02    0.04 
  -3  -7 -13    0.15    0.06 
  -4  -7 -13    0.23    0.06 
  -5  -7 -13    0.16    0.07 
  -3  -8 -13   -0.03    0.05 
   1   3 -14   -0.01    0.05 
   0   3 -14    0.32    0.08 
  -1   3 -14    0.24    0.07 
  -2   3 -14    0.45    0.08 
   2   2 -14    0.05    0.05 
   1   2 -14    0.10    0.06 
   0   2 -14    0.04    0.05 
  -1   2 -14    0.19    0.06 
  -2   2 -14    0.11    0.05 
  -3   2 -14    0.05    0.05 
   2   1 -14    0.16    0.06 
   1   1 -14    0.18    0.06 
   0   1 -14    0.16    0.05 
  -1   1 -14    0.07    0.04 
  -2   1 -14    0.22    0.06 
  -3   1 -14    0.02    0.05 
  -3   1 -14   -0.01    0.04 
  -4   1 -14    0.05    0.05 
  -4   1 -14    0.01    0.06 
   2   0 -14    0.12    0.05 
   1   0 -14    0.34    0.07 
   0   0 -14    0.43    0.07 
  -1   0 -14    0.49    0.07 
  -2   0 -14    0.14    0.05 
  -3   0 -14    0.04    0.04 
  -4   0 -14    0.46    0.07 
  -5   0 -14    0.31    0.08 
  -5   0 -14    0.41    0.08 
   2  -1 -14    0.03    0.05 
   1  -1 -14    0.39    0.07 
   0  -1 -14    0.49    0.07 
  -1  -1 -14    0.24    0.05 
  -2  -1 -14    0.09    0.04 
  -3  -1 -14    0.26    0.06 
  -4  -1 -14    0.09    0.05 
  -5  -1 -14   -0.01    0.05 
   1  -2 -14    0.15    0.05 
   0  -2 -14    2.99    0.13 
  -1  -2 -14    3.53    0.14 
  -2  -2 -14    0.52    0.07 
  -3  -2 -14    0.21    0.05 
  -4  -2 -14    0.05    0.05 
  -5  -2 -14    0.18    0.06 
   0  -3 -14    4.79    0.16 
  -1  -3 -14    4.19    0.15 
  -2  -3 -14    0.52    0.07 
  -3  -3 -14    0.02    0.04 
  -4  -3 -14    0.26    0.06 
  -5  -3 -14   -0.07    0.05 
  -1  -4 -14    0.31    0.06 
  -2  -4 -14   -0.01    0.04 
  -3  -4 -14   -0.04    0.04 
  -4  -4 -14    0.02    0.05 
  -5  -4 -14   -0.01    0.06 
  -1  -5 -14    0.02    0.04 
  -2  -5 -14    0.01    0.04 
  -3  -5 -14   -0.04    0.04 
  -4  -5 -14   -0.01    0.05 
  -5  -5 -14    2.28    0.15 
  -2  -6 -14   -0.05    0.04 
  -3  -6 -14    0.03    0.05 
  -4  -6 -14   -0.06    0.05 
  -3  -7 -14    0.94    0.10 
   0   2 -15    0.88    0.10 
  -1   2 -15    0.28    0.07 
  -2   2 -15    0.39    0.07 
   1   1 -15    0.07    0.06 
   0   1 -15    0.22    0.06 
  -1   1 -15    0.09    0.05 
  -2   1 -15    0.01    0.05 
  -3   1 -15    0.06    0.05 
   1   0 -15    0.34    0.07 
   0   0 -15    0.00    0.04 
  -1   0 -15    0.00    0.04 
  -2   0 -15    0.08    0.05 
  -3   0 -15    0.20    0.06 
  -4   0 -15    0.05    0.05 
   1  -1 -15    0.00    0.04 
   0  -1 -15    0.17    0.06 
  -1  -1 -15    0.04    0.04 
  -2  -1 -15    0.27    0.06 
  -3  -1 -15   -0.06    0.04 
  -4  -1 -15    0.04    0.05 
   1  -2 -15   -0.02    0.04 
   0  -2 -15   -0.03    0.04 
  -1  -2 -15    0.19    0.05 
  -2  -2 -15    0.07    0.04 
  -3  -2 -15    0.30    0.06 
  -4  -2 -15    0.10    0.06 
   0  -3 -15    2.10    0.12 
  -1  -3 -15    0.85    0.08 
  -2  -3 -15   -0.01    0.04 
  -3  -3 -15    0.16    0.06 
  -4  -3 -15    0.02    0.05 
  -1  -4 -15    0.17    0.05 
  -2  -4 -15    0.04    0.04 
  -3  -4 -15    0.02    0.05 
  -4  -4 -15    0.00    0.05 
  -1  -5 -15    0.07    0.05 
  -2  -5 -15    0.00    0.04 
  -3  -5 -15   -0.03    0.04 
  -4  -5 -15   -0.04    0.05 
  -2  -6 -15    0.03    0.05 
  -3  -6 -15    0.04    0.05 
  -1   0 -16   -0.01    0.05 
  -2   0 -16    0.03    0.05 
  -1  -1 -16    0.03    0.05 
  -2  -1 -16    0.03    0.05 
  -3  -1 -16    0.04    0.05 
  -1  -2 -16    0.11    0.05 
  -2  -2 -16    0.02    0.05 
  -3  -2 -16    0.54    0.08 
  -1  -3 -16   -0.03    0.04 
  -2  -3 -16    0.01    0.05 
  -3  -3 -16    0.39    0.07 
  -2  -4 -16    0.05    0.05 
   0   0   0    0.00    0.00 
;
loop_
_space_group_symop_operation_xyz
'x, y, z'
'-x, -y, -z'
loop_
_atom_site_label
_atom_site_type_symbol
_atom_site_fract_x
_atom_site_fract_y
_atom_site_fract_z
_atom_site_U_iso_or_equiv
_atom_site_adp_type
_atom_site_occupancy
_atom_site_site_symmetry_order
_atom_site_calc_flag
_atom_site_refinement_flags_posn
_atom_site_refinement_flags_adp
_atom_site_refinement_flags_occupancy
_atom_site_disorder_assembly
_atom_site_disorder_group
O1 O 0.2510(3) 0.0298(2) 0.85649(15) 0.0751(6) Uani 1 1 d . . . . .
O2 O 0.0494(3) -0.12022(19) 0.79958(13) 0.0610(5) Uani 1 1 d . . . . .
O3 O 0.4041(3) 0.3615(3) 0.29128(15) 0.0809(6) Uani 1 1 d . . . . .
O4 O 0.2805(2) 0.22045(19) 0.45430(12) 0.0540(4) Uani 1 1 d . . . . .
C1 C 0.4215(6) -0.2544(4) 1.0112(3) 0.0959(10) Uani 1 1 d . . . . .
H1A H 0.444679 -0.357035 1.065020 0.144 Uiso 1 1 calc R U . . .
H1B H 0.561221 -0.251871 0.956954 0.144 Uiso 1 1 calc R U . . .
H1C H 0.379030 -0.154790 1.050098 0.144 Uiso 1 1 calc R U . . .
C2 C 0.2340(5) -0.2536(3) 0.9515(2) 0.0722(7) Uani 1 1 d . . . . .
H2A H 0.276733 -0.356084 0.913999 0.087 Uiso 1 1 calc R U . . .
H2B H 0.094638 -0.259054 1.007094 0.087 Uiso 1 1 calc R U . . .
C3 C 0.1860(4) -0.0993(3) 0.86638(18) 0.0553(6) Uani 1 1 d . . . . .
C4 C -0.0021(4) 0.0090(3) 0.71067(17) 0.0496(5) Uani 1 1 d . . . . .
C5 C -0.2322(4) 0.0800(3) 0.70763(19) 0.0565(6) Uani 1 1 d . . . . .
H5A H -0.345748 0.047562 0.766009 0.068 Uiso 1 1 calc R U . . .
C6 C -0.2902(4) 0.1988(3) 0.6171(2) 0.0567(6) Uani 1 1 d . . . . .
H6A H -0.444486 0.246220 0.614149 0.068 Uiso 1 1 calc R U . . .
C7 C -0.1222(3) 0.2496(2) 0.52984(17) 0.0459(5) Uani 1 1 d . . . . .
C8 C 0.1062(3) 0.1751(2) 0.53752(16) 0.0442(5) Uani 1 1 d . . . . .
C9 C 0.1691(4) 0.0535(3) 0.62614(17) 0.0490(5) Uani 1 1 d . . . . .
H9A H 0.322999 0.003177 0.628561 0.059 Uiso 1 1 calc R U . . .
C10 C -0.1680(4) 0.3680(3) 0.43092(19) 0.0523(5) Uani 1 1 d . . . . .
H10A H -0.319884 0.416951 0.423622 0.063 Uiso 1 1 calc R U . . .
C11 C 0.0003(4) 0.4105(3) 0.34860(18) 0.0510(5) Uani 1 1 d . . . . .
C12 C 0.2373(4) 0.3343(3) 0.35891(18) 0.0543(5) Uani 1 1 d . . . . .
C13 C -0.0395(5) 0.5291(3) 0.2426(2) 0.0692(7) Uani 1 1 d . . . . .
H13A H 0.105616 0.540856 0.195891 0.104 Uiso 1 1 calc R U . . .
H13B H -0.121520 0.482765 0.202191 0.104 Uiso 1 1 calc R U . . .
H13C H -0.128268 0.640215 0.261331 0.104 Uiso 1 1 calc R U . . .
loop_
_atom_site_aniso_label
_atom_site_aniso_U_11
_atom_site_aniso_U_22
_atom_site_aniso_U_33
_atom_site_aniso_U_23
_atom_site_aniso_U_13
_atom_site_aniso_U_12
O1 0.0973(14) 0.0645(11) 0.0744(12) 0.0047(9) -0.0336(10) -0.0322(10)
O2 0.0784(11) 0.0529(9) 0.0559(9) 0.0031(7) -0.0186(8) -0.0247(8)
O3 0.0661(11) 0.1034(15) 0.0623(11) 0.0106(10) -0.0021(9) -0.0247(10)
O4 0.0463(8) 0.0600(9) 0.0497(8) -0.0008(7) -0.0063(7) -0.0089(7)
C1 0.125(3) 0.088(2) 0.0761(19) 0.0010(16) -0.0450(19) -0.0123(19)
C2 0.0906(19) 0.0627(15) 0.0571(14) 0.0034(12) -0.0148(13) -0.0142(13)
C3 0.0613(14) 0.0523(13) 0.0481(12) -0.0054(10) -0.0040(10) -0.0121(10)
C4 0.0618(13) 0.0424(11) 0.0478(11) -0.0060(9) -0.0120(10) -0.0162(9)
C5 0.0567(13) 0.0598(13) 0.0558(13) -0.0092(11) -0.0027(10) -0.0237(11)
C6 0.0452(12) 0.0604(13) 0.0653(14) -0.0099(11) -0.0100(10) -0.0128(10)
C7 0.0465(11) 0.0428(10) 0.0510(11) -0.0118(9) -0.0115(9) -0.0093(9)
C8 0.0456(11) 0.0428(10) 0.0448(11) -0.0112(8) -0.0060(9) -0.0098(8)
C9 0.0484(12) 0.0466(11) 0.0516(12) -0.0076(9) -0.0119(10) -0.0073(9)
C10 0.0511(12) 0.0465(11) 0.0618(13) -0.0082(10) -0.0195(11) -0.0072(9)
C11 0.0631(14) 0.0414(11) 0.0516(12) -0.0086(9) -0.0171(10) -0.0107(9)
C12 0.0592(14) 0.0548(12) 0.0484(12) -0.0057(10) -0.0082(10) -0.0150(10)
C13 0.0910(19) 0.0573(14) 0.0596(14) 0.0014(11) -0.0239(13) -0.0156(13)
loop_
_atom_type_symbol
_atom_type_description
_atom_type_scat_dispersion_real
_atom_type_scat_dispersion_imag
_atom_type_scat_source
C C 0.0033 0.0016 'International Tables Vol C Tables 4.2.6.8 and 6.1.1.4'
H H 0.0000 0.0000 'International Tables Vol C Tables 4.2.6.8 and 6.1.1.4'
O O 0.0106 0.0060 'International Tables Vol C Tables 4.2.6.8 and 6.1.1.4'
loop_
_geom_angle_atom_site_label_1
_geom_angle_atom_site_label_2
_geom_angle_atom_site_label_3
_geom_angle
_geom_angle_site_symmetry_1
_geom_angle_site_symmetry_3
C3 O2 C4 118.47(17) . .
C8 O4 C12 121.92(17) . .
C2 C1 H1A 109.5 . .
C2 C1 H1B 109.5 . .
H1A C1 H1B 109.5 . .
C2 C1 H1C 109.5 . .
H1A C1 H1C 109.5 . .
H1B C1 H1C 109.5 . .
C3 C2 C1 113.3(2) . .
C3 C2 H2A 108.9 . .
C1 C2 H2A 108.9 . .
C3 C2 H2B 108.9 . .
C1 C2 H2B 108.9 . .
H2A C2 H2B 107.7 . .
O1 C3 O2 122.6(2) . .
O1 C3 C2 126.5(2) . .
O2 C3 C2 110.9(2) . .
C9 C4 C5 122.0(2) . .
C9 C4 O2 120.6(2) . .
C5 C4 O2 117.19(19) . .
C6 C5 C4 119.0(2) . .
C6 C5 H5A 120.5 . .
C4 C5 H5A 120.5 . .
C5 C6 C7 121.1(2) . .
C5 C6 H6A 119.4 . .
C7 C6 H6A 119.4 . .
C6 C7 C8 117.5(2) . .
C6 C7 C10 124.6(2) . .
C8 C7 C10 117.82(19) . .
C9 C8 O4 117.02(18) . .
C9 C8 C7 122.57(19) . .
O4 C8 C7 120.41(18) . .
C4 C9 C8 117.8(2) . .
C4 C9 H9A 121.1 . .
C8 C9 H9A 121.1 . .
C11 C10 C7 122.1(2) . .
C11 C10 H10A 118.9 . .
C7 C10 H10A 118.9 . .
C10 C11 C12 119.4(2) . .
C10 C11 C13 123.9(2) . .
C12 C11 C13 116.7(2) . .
O3 C12 O4 115.7(2) . .
O3 C12 C11 126.0(2) . .
O4 C12 C11 118.29(19) . .
C11 C13 H13A 109.5 . .
C11 C13 H13B 109.5 . .
H13A C13 H13B 109.5 . .
C11 C13 H13C 109.5 . .
H13A C13 H13C 109.5 . .
H13B C13 H13C 109.5 . .
loop_
_geom_bond_atom_site_label_1
_geom_bond_atom_site_label_2
_geom_bond_distance
_geom_bond_site_symmetry_2
O1 C3 1.192(3) .
O2 C3 1.356(3) .
O2 C4 1.392(3) .
O3 C12 1.203(3) .
O4 C8 1.374(2) .
O4 C12 1.377(3) .
C1 C2 1.496(4) .
C1 H1A 0.9600 .
C1 H1B 0.9600 .
C1 H1C 0.9600 .
C2 C3 1.482(3) .
C2 H2A 0.9700 .
C2 H2B 0.9700 .
C4 C9 1.368(3) .
C4 C5 1.384(3) .
C5 C6 1.372(3) .
C5 H5A 0.9300 .
C6 C7 1.390(3) .
C6 H6A 0.9300 .
C7 C8 1.390(3) .
C7 C10 1.430(3) .
C8 C9 1.374(3) .
C9 H9A 0.9300 .
C10 C11 1.336(3) .
C10 H10A 0.9300 .
C11 C12 1.447(3) .
C11 C13 1.491(3) .
C13 H13A 0.9600 .
C13 H13B 0.9600 .
C13 H13C 0.9600 .
loop_
_geom_torsion_atom_site_label_1
_geom_torsion_atom_site_label_2
_geom_torsion_atom_site_label_3
_geom_torsion_atom_site_label_4
_geom_torsion
_geom_torsion_site_symmetry_1
_geom_torsion_site_symmetry_2
_geom_torsion_site_symmetry_3
_geom_torsion_site_symmetry_4
C4 O2 C3 O1 5.0(3) . . . .
C4 O2 C3 C2 -176.41(19) . . . .
C1 C2 C3 O1 -13.6(4) . . . .
C1 C2 C3 O2 167.9(2) . . . .
C3 O2 C4 C9 60.3(3) . . . .
C3 O2 C4 C5 -124.4(2) . . . .
C9 C4 C5 C6 -0.1(3) . . . .
O2 C4 C5 C6 -175.41(18) . . . .
C4 C5 C6 C7 -0.6(3) . . . .
C5 C6 C7 C8 0.2(3) . . . .
C5 C6 C7 C10 177.74(19) . . . .
C12 O4 C8 C9 176.66(18) . . . .
C12 O4 C8 C7 -2.8(3) . . . .
C6 C7 C8 C9 0.9(3) . . . .
C10 C7 C8 C9 -176.73(17) . . . .
C6 C7 C8 O4 -179.66(17) . . . .
C10 C7 C8 O4 2.7(3) . . . .
C5 C4 C9 C8 1.3(3) . . . .
O2 C4 C9 C8 176.37(17) . . . .
O4 C8 C9 C4 178.91(17) . . . .
C7 C8 C9 C4 -1.7(3) . . . .
C6 C7 C10 C11 -178.96(19) . . . .
C8 C7 C10 C11 -1.5(3) . . . .
C7 C10 C11 C12 0.3(3) . . . .
C7 C10 C11 C13 178.13(19) . . . .
C8 O4 C12 O3 -178.77(19) . . . .
C8 O4 C12 C11 1.5(3) . . . .
C10 C11 C12 O3 -180.0(2) . . . .
C13 C11 C12 O3 2.0(3) . . . .
C10 C11 C12 O4 -0.3(3) . . . .
C13 C11 C12 O4 -178.26(18) . . . .
