#------------------------------------------------------------------------------
#$Date: 2022-07-04 11:00:22 +0300 (Mon, 04 Jul 2022) $
#$Revision: 276518 $
#$URL: file:///home/coder/svn-repositories/cod/cif/8/10/56/8105620.cif $
#------------------------------------------------------------------------------
#
# This file is available in the Crystallography Open Database (COD),
# http://www.crystallography.net/
#
# All data on this site have been placed in the public domain by the
# contributors.
#
data_8105620
loop_
_publ_author_name
'Xi-Shi, Tai'
'Guan-Yu, Jiang'
'Ya-Ting, Yu'
'Hui, Yao'
'Ai-Jing, Wang'
_publ_section_title
;
 Bis(ethanol-\kO)-bis(6-aminopicolinato-\k2N,O)magnesium(II), C16H22O6N4Mg
;
_journal_issue                   2
_journal_name_full
'Zeitschrift f\"ur Kristallographie - New Crystal Structures'
_journal_page_first              289
_journal_page_last               290
_journal_paper_doi               10.1515/ncrs-2018-0345
_journal_volume                  234
_journal_year                    2019
_chemical_formula_moiety         'C16 H22 Mg N4 O6'
_chemical_formula_sum            'C16 H22 Mg N4 O6'
_chemical_formula_weight         390.68
_space_group_crystal_system      triclinic
_space_group_IT_number           2
_space_group_name_Hall           '-P 1'
_space_group_name_H-M_alt        'P -1'
_atom_sites_solution_hydrogens   mixed
_atom_sites_solution_primary     dual
_cell_angle_alpha                71.60(3)
_cell_angle_beta                 77.07(3)
_cell_angle_gamma                64.19(3)
_cell_formula_units_Z            1
_cell_length_a                   7.3165(15)
_cell_length_b                   8.2660(17)
_cell_length_c                   8.7599(18)
_cell_measurement_reflns_used    5094
_cell_measurement_temperature    293(2)
_cell_measurement_theta_max      28.344
_cell_measurement_theta_min      2.773
_cell_volume                     450.2(2)
_computing_cell_refinement       'SAINT v8.34A (Bruker, 2013)'
_computing_data_collection       'SAINT v8.34A (Bruker, 2013)'
_computing_data_reduction        'SAINT v8.34A (Bruker, 2013)'
_computing_molecular_graphics    'Olex2 (Dolomanov et al., 2009)'
_computing_publication_material  'Olex2 (Dolomanov et al., 2009)'
_computing_structure_refinement  'ShelXL (Sheldrick, 2015)'
_computing_structure_solution    'ShelXT (Sheldrick, 2015)'
_diffrn_ambient_temperature      293(2)
_diffrn_measured_fraction_theta_full 0.995
_diffrn_measured_fraction_theta_max 0.991
_diffrn_measurement_device_type  'Bruker P4'
_diffrn_measurement_method       '\w scans'
_diffrn_radiation_type           MoK\a
_diffrn_radiation_wavelength     0.71073
_diffrn_reflns_av_R_equivalents  0.0186
_diffrn_reflns_av_unetI/netI     0.0238
_diffrn_reflns_Laue_measured_fraction_full 0.995
_diffrn_reflns_Laue_measured_fraction_max 0.991
_diffrn_reflns_limit_h_max       9
_diffrn_reflns_limit_h_min       -9
_diffrn_reflns_limit_k_max       10
_diffrn_reflns_limit_k_min       -9
_diffrn_reflns_limit_l_max       11
_diffrn_reflns_limit_l_min       -11
_diffrn_reflns_number            4447
_diffrn_reflns_point_group_measured_fraction_full 0.995
_diffrn_reflns_point_group_measured_fraction_max 0.991
_diffrn_reflns_theta_full        25.242
_diffrn_reflns_theta_max         27.477
_diffrn_reflns_theta_min         3.109
_exptl_absorpt_coefficient_mu    0.141
_exptl_absorpt_correction_type   none
_exptl_crystal_colour            colourless
_exptl_crystal_colour_primary    colourless
_exptl_crystal_density_diffrn    1.441
_exptl_crystal_description       block
_exptl_crystal_F_000             206
_exptl_crystal_size_max          0.19
_exptl_crystal_size_mid          0.18
_exptl_crystal_size_min          0.17
_refine_diff_density_max         0.548
_refine_diff_density_min         -0.275
_refine_diff_density_rms         0.100
_refine_ls_extinction_coef       .
_refine_ls_extinction_method     none
_refine_ls_goodness_of_fit_ref   1.142
_refine_ls_hydrogen_treatment    constr
_refine_ls_matrix_type           full
_refine_ls_number_parameters     125
_refine_ls_number_reflns         2047
_refine_ls_number_restraints     0
_refine_ls_restrained_S_all      1.142
_refine_ls_R_factor_all          0.0553
_refine_ls_R_factor_gt           0.0513
_refine_ls_shift/su_max          0.000
_refine_ls_shift/su_mean         0.000
_refine_ls_structure_factor_coef Fsqd
_refine_ls_weighting_details
'w=1/[\s^2^(Fo^2^)+(0.0886P)^2^+0.0437P] where P=(Fo^2^+2Fc^2^)/3'
_refine_ls_weighting_scheme      calc
_refine_ls_wR_factor_gt          0.1283
_refine_ls_wR_factor_ref         0.1335
_reflns_Friedel_coverage         0.000
_reflns_Friedel_fraction_full    .
_reflns_Friedel_fraction_max     .
_reflns_number_gt                1805
_reflns_number_total             2047
_reflns_threshold_expression     'I > 2\s(I)'
_cod_data_source_file            ncrs-2018-0345_suppl.cif
_cod_data_source_block           ff1
_cod_database_code               8105620
_shelx_space_group_comment
;
The symmetry employed for this shelxl refinement is uniquely defined
by the following loop, which should always be used as a source of
symmetry information in preference to the above space-group names.
They are only intended as comments.
;
_shelx_estimated_absorpt_t_max   0.976
_shelx_estimated_absorpt_t_min   0.974
_olex2_refinement_description
;
1. Fixed Uiso
 At 1.2 times of:
  All C(H) groups, All C(H,H) groups, All N(H,H) groups
 At 1.5 times of:
  All C(H,H,H) groups, All O(H) groups
2.a Riding coordinates:
 O3(H3)
2.b Secondary CH2 refined with riding coordinates:
 C7(H7A,H7B)
2.c Aromatic/amide H refined with riding coordinates:
 C2(H2), C3(H3A), C4(H4)
2.d X=CH2 refined with riding coordinates:
 N1(H1A,H1B)
2.e Idealised Me refined as rotating group:
 C8(H8A,H8B,H8C)
;
_shelx_res_file
;
TITL ff1_a.res in P-1 New: P-1
    ff1.res
    created by SHELXL-2018/3 at 09:49:13 on 01-Sep-2018
CELL 0.71073 7.3165 8.266 8.7599 71.6 77.07 64.19
ZERR 1 0.0015 0.0017 0.0018 0.03 0.03 0.03
LATT 1
SFAC C H Mg N O
UNIT 16 22 1 4 6

L.S. 10
PLAN  -2
SIZE 0.19 0.18 0.17
BOND $H
CONF
fmap 2
acta
OMIT 1 0 2
OMIT 0 3 0
OMIT 2 3 8
OMIT -1 -2 2
OMIT 1 4 1
OMIT -2 -2 1
REM <olex2.extras>
REM <HklSrc "%.\\ff1.hkl">
REM </olex2.extras>

WGHT    0.088600    0.043700
FVAR       0.81009
MG1   3    0.500000    0.500000    0.500000    10.50000    0.02293    0.02196 =
         0.03431   -0.00327   -0.01158   -0.00934
O1    5    0.093434    0.419174    0.315042    11.00000    0.03219    0.03419 =
         0.05585   -0.01439   -0.01443   -0.01558
O2    5    0.364639    0.377452    0.419580    11.00000    0.02930    0.02300 =
         0.04786   -0.00593   -0.01595   -0.00977
O3    5    0.698911    0.515650    0.283606    11.00000    0.02743    0.04752 =
         0.03414   -0.00419   -0.00888   -0.01517
AFIX   3
H3    2    0.812541    0.509690    0.287946    11.00000   -1.50000
AFIX   0
N1    4    0.334880    0.975265    0.395454    11.00000    0.04906    0.02504 =
         0.06237   -0.00493   -0.02468   -0.01630
AFIX  93
H1A   2    0.440559    0.893466    0.443003    11.00000   -1.20000
H1B   2    0.308162    1.091372    0.377754    11.00000   -1.20000
AFIX   0
N2    4    0.255406    0.739819    0.377366    11.00000    0.02424    0.02206 =
         0.03000   -0.00439   -0.00719   -0.00972
C1    1    0.210956    0.921422    0.348607    11.00000    0.03056    0.02277 =
         0.03349   -0.00499   -0.00691   -0.01024
C2    1    0.039773    1.056527    0.267250    11.00000    0.04112    0.02243 =
         0.05641   -0.00421   -0.01947   -0.00617
AFIX  43
H2    2    0.009695    1.182264    0.248516    11.00000   -1.20000
AFIX   0
C3    1   -0.079900    0.999503    0.216965    11.00000    0.04483    0.02994 =
         0.07594   -0.00046   -0.03658   -0.00548
AFIX  43
H3A   2   -0.193242    1.086805    0.163801    11.00000   -1.20000
AFIX   0
C4    1   -0.033778    0.810869    0.244603    11.00000    0.03899    0.03270 =
         0.06238   -0.00479   -0.02795   -0.01281
AFIX  43
H4    2   -0.114496    0.770409    0.210392    11.00000   -1.20000
AFIX   0
C5    1    0.134390    0.686849    0.323835    11.00000    0.02505    0.02496 =
         0.03193   -0.00513   -0.00738   -0.01032
C6    1    0.200054    0.478719    0.355365    11.00000    0.02534    0.02617 =
         0.03204   -0.00754   -0.00505   -0.01228
C7    1    0.676530    0.536356    0.119944    11.00000    0.05334    0.04563 =
         0.04010   -0.00948   -0.01259   -0.01563
AFIX  23
H7A   2    0.585357    0.479505    0.119538    11.00000   -1.20000
H7B   2    0.808387    0.469716    0.067907    11.00000   -1.20000
AFIX   0
C8    1    0.595813    0.732161    0.023477    11.00000    0.07212    0.05307 =
         0.04345    0.00090   -0.01286   -0.01674
AFIX 137
H8A   2    0.582721    0.735348   -0.084169    11.00000   -1.50000
H8B   2    0.688026    0.788313    0.019020    11.00000   -1.50000
H8C   2    0.464569    0.799265    0.073285    11.00000   -1.50000
AFIX   0
HKLF 4




REM  ff1_a.res in P-1 New: P-1
REM wR2 = 0.1335, GooF = S = 1.142, Restrained GooF = 1.142 for all data
REM R1 = 0.0513 for 1805 Fo > 4sig(Fo) and 0.0553 for all 2047 data
REM 125 parameters refined using 0 restraints

END

WGHT      0.0888      0.0436

REM Highest difference peak  0.548,  deepest hole -0.275,  1-sigma level  0.100
Q1    1   0.1741  0.5816  0.3388  11.00000  0.05    0.55
Q2    1   0.2438  0.8272  0.3666  11.00000  0.05    0.48
;
_shelx_hkl_file
;
   0   0   2  643.29   14.36
   0   0  -2  653.05   14.55
   0   0  -2  635.56   14.18
   0   0   3 1167.74   28.97
   0   0  -3 1172.66   29.16
   0   0   4    5.65    0.18
   0   0  -4    5.65    0.18
   0   0   5   19.64    0.49
   0   0  -5   20.44    0.49
   0   0   6    5.95    0.37
   0   0  -6    5.95    0.25
   0   0   7    2.52    0.18
   0   0  -7    2.70    0.31
   0   0   8   24.00    0.68
   0   0  -8   24.43    0.80
   0   0   9    0.98    0.18
   0   0   9    0.92    0.18
   0   0  -9    0.86    0.18
   0   0  10    2.52    0.43
   0   0  10    1.41    0.25
   0   0 -10    1.78    0.25
   0   1 -10    5.83    0.43
   0  -1  10    5.77    0.31
   0  -1  10    5.95    0.37
   0   1  -9    4.54    0.31
   0  -1   9    4.05    0.25
   0  -1   9    4.11    0.25
   0   1  -8    0.49    0.18
   0  -1   8    0.49    0.25
   0   1  -7    6.38    0.43
   0  -1   7    6.02    0.25
   0   1  -6  137.87    3.13
   0  -1   6  130.01    2.82
   0   1  -5  388.68    9.02
   0  -1   5  405.80    9.02
   0   1  -4   33.70    0.68
   0   1  -4   33.88    0.74
   0  -1   4   32.78    0.68
   0   1  -3   22.34    0.43
   0   1  -3   21.67    0.49
   0  -1   3   21.85    0.49
   0   1  -2   18.84    0.37
   0  -1   2   18.66    0.31
   0   1  -1   33.33    0.55
   0  -1   1   34.44    0.55
   0   1   1  733.58   16.57
   0   1   2  188.81    3.31
   0  -1  -2  117.12    2.09
   0   1   3   19.21    0.49
   0  -1  -3   20.26    0.37
   0   1   4   51.75    1.10
   0  -1  -4   56.17    1.04
   0   1   5  218.15    4.73
   0  -1  -5  236.14    4.85
   0   1   6    1.47    0.25
   0  -1  -6    1.17    0.12
   0   1   7    5.77    0.43
   0  -1  -7    5.40    0.18
   0   1   8    1.17    0.25
   0  -1  -8    1.29    0.12
   0   1   9   17.49    0.61
   0   1   9   17.56    0.61
   0  -1  -9   16.70    0.49
   0   1  10    5.46    0.37
   0   1  10    5.40    0.37
   0  -1 -10    5.28    0.31
   0   2  -9    1.17    0.43
   0  -2   9    1.23    0.12
   0  -2   9    1.23    0.18
   0   2  -8    8.29    0.43
   0  -2   8    8.04    0.37
   0   2  -7    0.68    0.25
   0  -2   7    0.74    0.12
   0   2  -6    0.18    0.18
   0  -2   6    0.31    0.12
   0   2  -5   97.41    1.96
   0   2  -5   96.68    2.21
   0  -2   5   95.76    1.90
   0   2  -4   25.66    0.49
   0   2  -4   25.11    0.61
   0  -2   4   25.11    0.49
   0   2  -3  159.29    3.07
   0  -2   3  157.57    3.01
   0   2  -2   14.55    0.25
   0  -2   2   14.73    0.31
   0   2  -1  970.09   22.77
   0  -2   1  957.57   22.34
   0   2   0 1450.72   36.34
   0  -2   0 1375.53   34.56
   0   2   1   66.66    1.35
   0  -2  -1   71.08    1.35
   0   2   2 1305.55   32.78
   0   2   3   23.63    0.37
   0   2   4    6.02    0.25
   0   2   5  157.32    3.38
   0   2   6   17.92    0.49
   0  -2  -6   18.66    0.37
   0   2   7    0.12    0.18
   0  -2  -7    0.06    0.12
   0   2   8    2.64    0.31
   0   2   8    2.64    0.25
   0  -2  -8    2.15    0.25
   0   2   9    7.80    0.43
   0   2   9    8.10    0.61
   0  -2  -9    7.30    0.25
   0   2  10    4.36    0.37
   0   2  10    5.16    0.61
   0   2  11    1.35    0.31
   0   2  11    0.49    0.49
   0   3  -9    4.36    0.43
   0   3  -8    3.25    0.37
   0  -3   8    3.01    0.18
   0   3  -7    5.52    0.61
   0  -3   7    5.22    0.18
   0   3  -6    2.15    0.31
   0  -3   6    2.58    0.25
   0   3  -5  176.41    4.17
   0   3  -5  183.35    3.87
   0  -3   5  191.15    3.87
   0   3  -4   23.51    0.68
   0   3  -4   24.06    0.49
   0  -3   4   23.33    0.49
   0   3  -3   32.96    0.61
   0  -3   3   31.31    0.55
   0   3  -2   98.70    1.84
   0  -3   2  100.12    1.84
   0   3  -1  167.70    3.19
   0  -3   1  165.24    3.19
   0   3   0    7.06    0.18
   0  -3   0    6.38    0.18
   0   3   1  561.84   12.71
   0  -3  -1  554.84   12.58
   0   3   2  302.99    6.45
   0   3   3   40.64    0.86
   0   3   4  139.09    3.01
   0   3   4  166.78    3.01
   0   3   5  133.45    2.95
   0   3   5  127.80    2.82
   0   3   6   37.81    0.98
   0   3   6   39.84    1.04
   0   3   7    2.21    0.25
   0   3   7    1.72    0.25
   0   3   8   54.88    1.47
   0   3   8   57.88    1.72
   0   3   9    7.55    0.43
   0   3   9    7.30    0.49
   0   3  10    0.49    0.25
   0   3  10    0.31    0.43
   0   3  11    2.15    0.37
   0   3  11    2.33    0.61
   0   4  -8   47.14    1.53
   0   4  -7   56.53    2.03
   0   4  -6    0.68    0.31
   0  -4   6    0.55    0.12
   0   4  -5   29.53    0.55
   0   4  -5   32.41    0.98
   0  -4   5   29.10    0.61
   0   4  -4    0.18    0.06
   0   4  -4    0.31    0.37
   0  -4   4    0.25    0.06
   0   4  -3   35.17    0.92
   0   4  -3   34.80    0.68
   0  -4   3   33.21    0.61
   0   4  -2  172.98    3.44
   0  -4   2  169.97    3.31
   0   4  -1   30.45    0.55
   0  -4   1   29.03    0.55
   0   4   0  631.01   14.42
   0  -4   0  618.37   14.12
   0   4   1   12.52    0.31
   0   4   2  456.69   10.50
   0   4   3  106.81    2.33
   0   4   4  113.19    2.46
   0   4   5  149.96    3.38
   0   4   5  159.35    3.62
   0   4   6   63.47    1.60
   0   4   6   60.89    1.66
   0   4   7    2.70    0.31
   0   4   7    2.58    0.31
   0   4   8   20.62    0.74
   0   4   8   19.89    0.74
   0   4   9   21.61    1.04
   0   4   9   20.26    0.80
   0   4  10    8.04    0.55
   0   4  10    8.96    0.55
   0   5  -7   14.73    0.80
   0   5  -6   76.91    2.21
   0   5  -5   57.33    1.60
   0   5  -5   51.75    0.98
   0  -5   5   49.90    0.92
   0   5  -4    5.46    0.12
   0   5  -4    5.89    0.43
   0  -5   4    5.34    0.12
   0   5  -3  115.46    2.76
   0   5  -3  113.07    2.21
   0  -5   3  106.44    2.15
   0   5  -2    0.80    0.06
   0  -5   2    0.55    0.12
   0   5  -1    0.49    0.06
   0  -5   1    0.43    0.06
   0   5   0   17.49    0.37
   0  -5   0   17.19    0.43
   0   5   1   24.12    0.61
   0   5   2   65.86    1.41
   0   5   3   68.93    1.53
   0   5   4   31.00    0.80
   0   5   5   55.24    0.98
   0   5   5   60.22    1.47
   0   5   6   35.54    1.04
   0   5   6   36.15    1.04
   0   5   7    0.12    0.25
   0   5   7    0.31    0.25
   0   5   8    2.21    0.37
   0   5   8    2.21    0.37
   0   5   9    3.81    0.43
   0   5   9    4.05    0.68
   0   5  10    0.06    0.25
   0   5  10   -0.06    0.43
   0   6  -6    6.94    0.61
   0   6  -5    0.92    0.37
   0   6  -4   26.39    0.92
   0   6  -4   23.14    0.43
   0   6  -3   26.27    1.04
   0   6  -3   24.80    0.49
   0  -6   3   23.57    0.49
   0   6  -2    0.18    0.18
   0   6  -2    0.18    0.12
   0  -6   2    0.12    0.06
   0   6  -1    0.55    0.18
   0   6  -1    0.55    0.12
   0   6   0   10.44    0.31
   0   6   1   32.35    0.74
   0   6   2    0.49    0.12
   0   6   3   80.90    1.84
   0   6   4   33.70    0.92
   0   6   5   26.89    0.55
   0   6   5   28.60    0.86
   0   6   6   16.57    0.61
   0   6   6   17.19    0.68
   0   6   7    1.78    0.31
   0   6   7    1.72    0.31
   0   6   8    1.29    0.31
   0   6   8    1.29    0.55
   0   6   9    0.06    0.25
   0   6   9    0.00    0.25
   0   6  10    0.25    0.31
   0   6  10   -0.18    0.31
   0   7  -5    2.70    0.49
   0   7  -4    1.04    0.55
   0   7  -3    2.15    0.37
   0   7  -2    0.68    0.12
   0   7  -2    0.68    0.43
   0   7  -1    2.39    0.25
   0   7  -1    2.39    0.25
   0   7   0   14.61    0.49
   0   7   0   15.04    0.43
   0   7   1   57.58    1.41
   0   7   1   64.27    1.41
   0   7   2    6.02    0.31
   0   7   2    5.22    0.25
   0   7   3   10.44    0.31
   0   7   3   11.79    0.43
   0   7   4   13.81    0.49
   0   7   4   12.40    0.31
   0   7   5   22.83    0.98
   0   7   5   21.85    0.55
   0   7   6   17.13    0.31
   0   7   6   18.11    0.68
   0   7   6   19.40    0.74
   0   7   7    1.23    0.31
   0   7   7    1.10    0.31
   0   7   8    1.53    0.37
   0   7   8    1.90    0.37
   0   7   9    2.21    0.68
   0   7   9    2.03    0.49
   0   8  -3   29.03    1.41
   0   8  -2   45.30    1.41
   0   8  -1    3.93    0.25
   0   8  -1    3.56    0.37
   0   8   0    8.35    0.31
   0   8   0    7.61    0.43
   0   8   1   24.92    0.92
   0   8   1   27.68    0.74
   0   8   2   19.09    0.68
   0   8   2   16.39    0.61
   0   8   3    0.43    0.12
   0   8   3    0.55    0.18
   0   8   4    5.95    0.37
   0   8   4    5.40    0.25
   0   8   5    9.70    0.49
   0   8   5    8.72    0.25
   0   8   5    9.51    0.68
   0   8   6   10.74    0.55
   0   8   6   11.48    0.61
   0   8   7    5.34    0.49
   0   8   7    4.85    0.43
   0   8   8    6.26    0.80
   0   8   8    6.63    0.86
   0   9   0   21.67    0.61
   0   9   1    9.33    0.37
   0   9   2    0.61    0.31
   0   9   3    0.00    0.12
   0   9   3    0.12    0.18
   0   9   4    3.01    0.31
   0   9   4    3.01    0.31
   0   9   5    1.23    0.25
   0   9   5    0.00    0.25
   0   9   6    1.35    0.31
   0   9   6    0.00    0.31
  -1   9   4    0.00    0.18
  -1   9   3    2.88    0.31
  -1   9   2    9.51    0.43
  -1   9   1   20.62    0.68
  -1   8   7    9.45    0.61
  -1   8   7   11.36    0.68
  -1   8   6    3.68    0.61
  -1   8   5    2.46    0.18
  -1   8   5    2.88    0.37
  -1   8   4   17.13    0.61
  -1   8   3   10.37    0.43
  -1   8   2    0.00    0.12
  -1   8   1    7.00    0.31
  -1   8   0   78.57    1.90
  -1   8  -1   49.72    1.23
  -1   8  -2    0.12    0.12
  -1   7   8    8.04    0.61
  -1   7   8    8.59    0.98
  -1   7   7    1.10    0.37
  -1   7   7    1.17    0.37
  -1   7   6    1.41    0.31
  -1   7   5   10.86    0.55
  -1   7   4    9.02    0.43
  -1   7   3   31.98    0.92
  -1   7   2    0.49    0.18
  -1   7   1   10.31    0.37
  -1   7   0   18.41    0.55
   1  -7   1    4.67    0.25
  -1   7  -1    4.60    0.25
   1  -7   2    0.98    0.12
  -1   7  -2    0.98    0.25
   1  -7   3    0.18    0.12
  -1   7  -3    0.25    0.25
  -1   7  -3    0.12    0.12
  -1   7  -4    4.97    0.49
  -1   6   9    2.70    0.68
  -1   6   9    2.52    0.49
  -1   6   8    7.43    0.55
  -1   6   8    7.06    0.80
  -1   6   7    1.72    0.37
  -1   6   7    2.09    0.55
  -1   6   6    7.92    0.18
  -1   6   6    8.84    0.49
  -1   6   5   58.31    1.53
  -1   6   4   10.99    0.43
  -1   6   3   12.64    0.49
  -1   6   2    1.04    0.18
   1  -6  -1    1.23    0.18
  -1   6   1    1.41    0.18
   1  -6   0   15.22    0.43
  -1   6   0   15.53    0.43
   1  -6   1   49.60    1.23
  -1   6  -1   50.52    1.10
   1  -6   2   19.52    0.49
  -1   6  -2   20.44    0.49
   1  -6   3    5.83    0.25
  -1   6  -3    6.14    0.25
   1  -6   4    5.28    0.25
  -1   6  -4    6.02    0.43
  -1   6  -4    5.46    0.18
  -1   6  -5   11.11    0.92
  -1   6  -6    7.24    0.61
  -1   5  10    0.74    0.37
  -1   5  10    0.68    0.37
  -1   5   9    3.93    0.43
  -1   5   9    4.11    0.43
  -1   5   8   17.37    0.74
  -1   5   8   19.21    1.10
  -1   5   7    0.86    0.25
  -1   5   7    0.74    0.31
  -1   5   6    2.46    0.31
  -1   5   6    2.64    0.12
  -1   5   5   46.96    1.23
  -1   5   4   85.87    2.03
  -1   5   3   14.55    0.49
   1  -5  -2    0.06    0.12
  -1   5   2    0.12    0.12
   1  -5  -1    2.21    0.18
  -1   5   1    2.21    0.25
   1  -5   0   34.68    0.80
  -1   5   0   35.54    0.92
   1  -5   1  143.94    3.07
  -1   5  -1  149.96    3.19
   1  -5   2   54.14    1.10
  -1   5  -2   57.52    1.29
   1  -5   3   32.47    0.80
  -1   5  -3   34.62    0.80
   1  -5   4  165.12    3.50
  -1   5  -4  173.59    3.74
   1  -5   5   70.04    1.47
  -1   5  -5   76.30    2.09
  -1   5  -5   73.29    1.53
  -1   5  -6   28.48    1.04
  -1   5  -7    0.06    0.25
  -1   4  10    3.87    0.43
  -1   4  10    3.56    0.68
  -1   4   9    0.80    0.31
  -1   4   9    0.86    0.31
  -1   4   8   41.80    1.29
  -1   4   8   41.31    1.29
  -1   4   7   18.91    0.68
  -1   4   7   18.78    0.74
  -1   4   6   14.98    0.55
  -1   4   6   13.57    0.25
  -1   4   5    6.51    0.37
  -1   4   5    6.51    0.18
  -1   4   4   47.26    1.10
  -1   4   3    0.92    0.18
   1  -4  -2   52.24    1.23
  -1   4   2   52.36    1.17
   1  -4  -1   22.53    0.55
  -1   4   1   23.14    0.55
   1  -4   0  447.79   10.07
  -1   4   0  451.41   10.19
   1  -4   1  117.55    2.46
  -1   4  -1  120.25    2.58
   1  -4   2   21.73    0.49
  -1   4  -2   22.90    0.49
   1  -4   3  156.53    3.19
  -1   4  -3  150.39    3.19
   1  -4   4    0.18    0.06
  -1   4  -4    0.18    0.12
   1  -4   5  282.48    6.14
  -1   4  -5  265.11    5.89
   1  -4   6   86.61    1.90
  -1   4  -6   89.80    2.33
  -1   4  -6   84.52    1.84
   1  -4   7    0.80    0.12
  -1   4  -7    0.80    0.18
  -1   4  -7    0.68    0.31
  -1   4  -8    0.12    0.31
  -1   3  10   11.60    0.61
  -1   3  10   11.79    0.61
  -1   3   9   10.56    0.55
  -1   3   9   10.86    0.55
  -1   3   8   26.82    0.86
  -1   3   8   25.90    0.86
  -1   3   7    5.59    0.49
  -1   3   7    5.34    0.37
  -1   3   6    4.67    0.18
  -1   3   6    4.17    0.43
  -1   3   5   45.67    0.86
  -1   3   5   49.78    1.23
  -1   3   4    5.95    0.31
  -1   3   3   59.66    1.29
   1  -3  -2   75.38    1.53
  -1   3   2   78.45    1.60
   1  -3  -1   65.50    1.29
  -1   3   1   69.36    1.41
   1  -3   0  310.17    6.63
  -1   3   0  288.99    6.32
   1  -3   1  110.80    2.15
  -1   3  -1  106.87    2.21
   1  -3   2    0.06    0.06
  -1   3  -2    0.00    0.06
   1  -3   3  175.74    3.50
  -1   3  -3  158.67    3.25
   1  -3   4   20.62    0.49
  -1   3  -4   20.87    0.49
   1  -3   5  117.24    2.52
  -1   3  -5  112.82    2.39
   1  -3   6   15.65    0.43
  -1   3  -6   15.28    0.37
  -1   3  -6   15.96    0.61
   1  -3   7    0.00    0.18
  -1   3  -7    0.18    0.25
  -1   3  -7    0.12    0.12
   1  -3   8    5.03    0.31
  -1   3  -8    5.09    0.43
  -1   3  -9    0.18    0.25
  -1   2  10    0.37    0.25
  -1   2  10    0.12    0.25
  -1   2   9   10.44    0.68
  -1   2   9   10.07    0.49
  -1   2   8   26.39    0.80
  -1   2   8   27.93    0.86
  -1   2   7   14.92    0.55
  -1   2   7   13.93    0.49
  -1   2   6   18.11    0.43
  -1   2   6   17.56    0.55
  -1   2   6   18.66    0.55
  -1   2   5    0.18    0.12
  -1   2   5    0.31    0.12
  -1   2   4   60.40    1.10
  -1   2   4   67.77    1.53
  -1   2   3   22.65    0.55
   1  -2  -2  113.99    2.27
  -1   2   2  115.15    2.39
   1  -2  -1  260.63    5.22
  -1   2   1  193.48    3.99
   1  -2   0  429.86    9.27
  -1   2   0  421.27    9.21
   1  -2   1  796.20   18.54
  -1   2  -1  793.06   18.54
   1  -2   2   18.91    0.49
  -1   2  -2   18.17    0.37
   1  -2   3   41.13    0.92
  -1   2  -3   40.45    0.80
   1  -2   4    1.17    0.12
  -1   2  -4    1.17    0.12
   1  -2   5   53.77    1.10
  -1   2  -5   54.57    1.23
   1  -2   6   33.94    0.86
  -1   2  -6   32.96    0.74
  -1   2  -6   33.27    0.92
   1  -2   7    5.09    0.25
  -1   2  -7    5.03    0.31
  -1   2  -7    5.22    0.37
   1  -2   8    0.00    0.25
  -1   2  -8    0.80    0.25
   1  -2   9    1.23    0.37
  -1   2  -9    1.84    0.31
   1  -1 -10    0.68    0.18
  -1   1  10    0.55    0.25
  -1   1  10    0.68    0.25
   1  -1  -9    3.01    0.25
  -1   1   9    3.13    0.25
  -1   1   9    2.70    0.31
   1  -1  -8   13.69    0.55
  -1   1   8   12.40    0.49
  -1   1   8   12.89    0.49
   1  -1  -7    0.98    0.25
  -1   1   7    1.04    0.18
  -1   1   7    0.86    0.31
   1  -1  -6   76.36    1.72
  -1   1   6   73.54    1.66
  -1   1   6   76.48    1.84
   1  -1  -5    2.09    0.12
  -1   1   5    2.03    0.31
  -1   1   5    2.03    0.12
  -1   1   5    1.96    0.18
  -1   1   4  500.70   11.11
  -1   1   4  495.97   11.36
  -1   1   3  603.58   13.57
  -1   1   3  572.27   13.32
   1  -1  -2    7.43    0.25
  -1   1   2    7.86    0.25
   1  -1  -1  541.15   11.85
  -1   1   1  536.30   11.79
   1  -1   0  560.67   12.28
  -1   1   0  546.80   11.97
   1  -1   1    4.60    0.12
  -1   1  -1    4.67    0.12
   1  -1   2   18.66    0.43
  -1   1  -2   19.21    0.49
   1  -1   3  481.00   10.74
  -1   1  -3  464.85   10.31
   1  -1   4  557.66   12.77
  -1   1  -4  536.06   12.28
   1  -1   5   16.08    0.49
  -1   1  -5   15.47    0.37
   1  -1   6    2.64    0.31
  -1   1  -6    1.10    0.25
   1  -1   7   61.26    1.53
  -1   1  -7   62.49    1.41
  -1   1  -7   61.75    1.53
   1  -1   8    3.25    0.37
  -1   1  -8    3.38    0.25
   1  -1   9    0.86    0.18
  -1   1  -9    0.98    0.25
   1  -1  10    4.30    0.49
  -1   1 -10    4.48    0.37
   1   0 -10    6.38    0.55
  -1   0  10    6.02    0.37
  -1   0  10    6.38    0.37
   1   0  -9   11.48    0.43
  -1   0   9   11.85    0.49
  -1   0   9   11.48    0.43
   1   0  -8   36.09    0.98
  -1   0   8   36.52    0.92
  -1   0   8   37.01    0.98
   1   0  -7    0.55    0.18
  -1   0   7    0.68    0.18
  -1   0   7    0.86    0.18
   1   0  -6   67.71    1.60
  -1   0   6   65.56    1.41
  -1   0   6   66.42    1.60
   1   0  -5  187.46    4.05
  -1   0   5  184.82    3.99
  -1   0   5  184.58    3.93
   1   0  -4    1.84    0.25
  -1   0   4    1.66    0.12
  -1   0   4    1.84    0.12
  -1   0   4    1.84    0.12
   1   0  -3 1385.90   35.23
  -1   0   3 1338.14   34.01
  -1   0   3 1344.04   34.07
   1   0  -2 9999.00  350.43
   1   0  -2 9755.92  341.72
  -1   0   2 9792.08  342.82
  -1   0   2 9546.36  334.23
   1   0  -1  467.67   10.07
  -1   0   1  489.71   10.56
  -1   0   1  481.42   10.37
   1   0   0   37.26    0.61
  -1   0   0   37.81    0.68
   1   0   1  339.75    7.00
  -1   0  -1  329.07    6.87
   1   0   2   38.43    0.86
  -1   0  -2   45.36    0.92
   1   0   3  107.85    2.09
  -1   0  -3  103.25    2.03
   1   0   4   28.67    0.74
  -1   0  -4   28.79    0.74
   1   0   5  113.13    2.46
  -1   0  -5  115.52    2.46
   1   0   6   89.62    2.09
  -1   0  -6   89.31    1.90
  -1   0  -6   89.13    1.90
   1   0   7    2.76    0.25
  -1   0  -7    1.60    0.18
  -1   0  -7    3.19    0.31
   1   0   8    0.06    0.18
  -1   0  -8    0.12    0.25
   1   0   9    9.33    0.43
  -1   0  -9    9.27    0.37
   1   0  10    6.87    0.61
  -1   0 -10    6.14    0.37
   1   1 -10    0.43    0.25
  -1  -1  10    0.25    0.18
  -1  -1  10    0.25    0.12
   1   1  -9    0.43    0.37
  -1  -1   9    0.49    0.25
  -1  -1   9    0.37    0.18
   1   1  -8   64.45    1.66
  -1  -1   8   62.30    1.47
  -1  -1   8   60.77    1.41
   1   1  -7   35.54    0.98
  -1  -1   7   35.05    0.86
  -1  -1   7   34.13    0.80
   1   1  -6    7.49    0.55
  -1  -1   6    6.81    0.31
   1   1  -5    1.60    0.18
  -1  -1   5    1.41    0.12
   1   1  -4  155.67    3.38
  -1  -1   4  173.65    3.44
  -1  -1   4  161.50    3.31
   1   1  -3   74.89    1.53
  -1  -1   3   77.10    1.41
  -1  -1   3   73.29    1.47
  -1  -1   3   77.53    1.41
   1   1  -2    4.30    0.25
  -1  -1   2    4.17    0.12
  -1  -1   2    4.42    0.18
   1   1  -1   58.80    1.17
   1   1  -1   70.84    1.17
  -1  -1   1   61.69    1.23
   1   1   0  602.66   13.01
   1   1   0  601.92   13.26
  -1  -1   0  591.12   13.14
  -1  -1   0  615.67   13.38
   1   1   1  305.75    6.20
  -1  -1  -1  309.00    6.38
   1   1   2  360.32    7.61
  -1  -1  -2  351.91    7.43
   1   1   3  257.01    5.34
  -1  -1  -3  258.30    5.40
   1   1   4   55.80    1.17
  -1  -1  -4   50.33    1.23
   1   1   5   11.66    0.37
  -1  -1  -5   12.71    0.31
  -1  -1  -5   13.07    0.49
   1   1   6   26.09    0.68
  -1  -1  -6   26.76    0.68
  -1  -1  -6   26.64    0.55
   1   1   7   14.67    0.49
  -1  -1  -7   15.35    0.49
   1   1   8    2.33    0.25
  -1  -1  -8    1.78    0.18
   1   1   9   20.75    0.68
  -1  -1  -9   20.50    0.55
   1   1  10    6.02    0.61
  -1  -1 -10    6.02    0.31
   1   1  11    8.23    0.49
   1   1  11    8.78    0.49
   1   2  -9    5.28    0.61
  -1  -2   9    4.54    0.25
  -1  -2   9    4.60    0.25
   1   2  -8    4.67    0.37
  -1  -2   8    4.11    0.18
  -1  -2   8    4.11    0.18
   1   2  -7   11.23    0.49
  -1  -2   7   10.68    0.31
  -1  -2   7   10.68    0.37
   1   2  -6    7.18    0.49
  -1  -2   6    6.45    0.18
  -1  -2   6    6.57    0.25
   1   2  -5   52.05    1.23
  -1  -2   5   51.44    0.98
  -1  -2   5   49.29    0.98
   1   2  -4  151.06    3.50
  -1  -2   4  165.61    3.19
  -1  -2   4  166.53    3.25
   1   2  -3  683.80   16.27
  -1  -2   3  653.79   14.55
  -1  -2   3  677.05   15.10
  -1  -2   2  121.11    2.03
  -1  -2   2  103.06    1.72
   1   2  -1   24.86    0.55
  -1  -2   1   25.60    0.61
   1   2   0  464.54   10.07
   1   2   0  482.16   10.13
  -1  -2   0  473.63   10.37
   1   2   1  304.58    6.14
   1   2   1  301.70    6.14
  -1  -2  -1  299.85    6.20
  -1  -2  -1  315.57    6.38
   1   2   2  119.70    2.33
  -1  -2  -2  115.34    2.33
  -1  -2  -2  137.37    2.39
   1   2   3    9.51    0.25
  -1  -2  -3   10.56    0.31
   1   2   4    5.71    0.49
  -1  -2  -4    7.73    0.31
  -1  -2  -4    6.94    0.12
   1   2   5   34.56    0.86
  -1  -2  -5   36.65    0.68
   1   2   6   58.99    1.53
  -1  -2  -6   60.77    1.17
   1   2   7    3.56    0.31
  -1  -2  -7    3.74    0.12
   1   2   8   13.20    0.55
  -1  -2  -8   11.72    0.31
   1   2   9    8.10    0.61
  -1  -2  -9    7.12    0.25
   1   2  10    9.82    0.49
  -1  -2 -10    9.27    0.37
   1   2  11   20.81    0.86
   1   2  11   20.75    0.80
   1   3  -9    3.19    0.43
   1   3  -8    4.17    0.43
   1   3  -7   31.92    1.23
  -1  -3   7   26.21    0.61
  -1  -3   7   27.81    0.55
   1   3  -6    0.49    0.25
  -1  -3   6    0.55    0.06
   1   3  -5   32.41    0.92
  -1  -3   5   30.26    0.55
  -1  -3   5   29.89    0.55
   1   3  -4  254.68    6.02
  -1  -3   4  297.28    5.89
  -1  -3   4  311.15    6.14
   1   3  -3  179.30    3.93
   1   3  -2   34.99    0.80
   1   3  -1 1687.35   42.60
   1   3  -1 1648.74   43.64
   1   3  -1 1656.41   41.86
   1   3   0   43.89    0.92
   1   3   0   45.61    0.86
   1   3   0   43.89    0.80
   1   3   1  583.81   13.07
   1   3   1  586.51   13.20
   1   3   2  403.35    8.41
   1   3   2  380.57    8.23
   1   3   3   22.65    0.61
   1   3   3   24.68    0.37
   1   3   4   10.62    0.31
   1   3   5   95.39    2.09
   1   3   6  502.97   11.97
   1   3   7    4.79    0.31
   1   3   8    7.12    0.43
   1   3   9    6.38    0.43
   1   3  10    0.25    0.25
   1   3  11    4.67    0.43
   1   3  11    4.36    0.49
   1   4  -8    2.33    0.43
   1   4  -7   19.58    0.80
   1   4  -6   18.29    0.98
   1   4  -5   13.69    0.55
   1   4  -4  208.03    5.16
   1   4  -3   82.93    1.96
   1   4  -2  182.55    4.05
   1   4  -1  148.06    3.19
   1   4  -1  182.18    3.38
   1   4   0  276.41    5.65
   1   4   0  247.99    5.34
   1   4   1    1.96    0.18
   1   4   1    1.96    0.18
   1   4   2  219.63    4.54
   1   4   2  211.83    4.42
   1   4   2  219.81    4.42
   1   4   3   38.73    0.92
   1   4   3   39.71    0.74
   1   4   4   12.46    0.37
   1   4   5   18.60    0.55
   1   4   6  187.09    4.54
   1   4   7   56.59    1.41
   1   4   8    7.86    0.43
   1   4   9    0.00    0.31
   1   4   9    0.00    0.18
   1   4  10    3.13    0.37
   1   4  10    2.64    0.37
   1   4  11    0.98    0.37
   1   4  11    0.80    0.37
   1   5  -7   20.38    0.92
   1   5  -6   14.12    0.98
   1   5  -5   50.33    1.47
   1   5  -4   15.78    0.86
   1   5  -3   11.97    0.49
   1   5  -2    0.92    0.18
   1   5  -2    0.61    0.06
   1   5  -2    0.61    0.06
   1   5  -1    3.93    0.25
   1   5  -1    3.50    0.12
   1   5   0   93.36    1.78
   1   5   0   92.57    2.03
   1   5   1  417.71    9.45
   1   5   1  426.61    9.45
   1   5   2   46.22    1.04
   1   5   2   50.27    1.04
   1   5   2   48.37    1.04
   1   5   3   46.84    0.98
   1   5   3   47.94    1.04
   1   5   3   49.54    1.10
   1   5   4   19.34    0.37
   1   5   4   19.15    0.49
   1   5   4   20.07    0.55
   1   5   5   27.50    0.74
   1   5   5   25.96    0.68
   1   5   6   55.61    1.41
   1   5   6   57.76    1.47
   1   5   7    7.30    0.43
   1   5   7    7.55    0.61
   1   5   8   14.06    0.61
   1   5   8   14.42    0.61
   1   5   9    0.25    0.43
   1   5   9    0.12    0.25
   1   5  10    0.37    0.31
   1   6  -6    0.80    0.61
   1   6  -5    8.10    0.55
   1   6  -4    2.95    0.61
   1   6  -3    4.05    0.37
   1   6  -2    0.80    0.06
   1   6  -2    0.80    0.06
   1   6  -2    0.80    0.25
   1   6  -1    1.47    0.37
   1   6  -1    1.41    0.12
   1   6   0    8.04    0.31
   1   6   0    4.48    0.18
   1   6   1  275.67    6.14
   1   6   1  276.28    6.20
   1   6   2   51.81    1.10
   1   6   2   49.60    1.17
   1   6   2   52.18    1.10
   1   6   3    7.73    0.31
   1   6   3    7.67    0.25
   1   6   3    8.16    0.43
   1   6   4    8.65    0.49
   1   6   4    9.08    0.37
   1   6   4    8.35    0.25
   1   6   5   33.94    0.61
   1   6   5   33.88    0.92
   1   6   5   35.17    0.98
   1   6   6    5.71    0.55
   1   6   6    5.03    0.37
   1   6   7    2.95    0.37
   1   6   7    3.01    0.37
   1   6   8    2.52    0.37
   1   6   8    2.21    0.37
   1   6   9   10.86    0.61
   1   6   9   10.62    0.61
   1   6  10    5.03    0.55
   1   6  10    5.65    0.80
   1   7  -5    0.37    0.37
   1   7  -4    2.95    0.43
   1   7  -3    5.77    0.43
   1   7  -2    8.35    0.18
   1   7  -2    9.08    0.49
   1   7  -2    8.59    0.18
   1   7  -1   15.90    0.37
   1   7  -1   15.78    0.37
   1   7  -1   16.82    0.61
   1   7   0    8.78    0.25
   1   7   0    8.65    0.25
   1   7   0    9.51    0.43
   1   7   1   53.77    1.17
   1   7   1   53.83    1.17
   1   7   1   54.32    1.29
   1   7   2   43.58    0.98
   1   7   2   42.72    1.04
   1   7   2   41.37    0.98
   1   7   3   20.81    0.49
   1   7   3   21.24    0.55
   1   7   3   21.48    0.61
   1   7   4   15.10    0.37
   1   7   4   15.84    0.55
   1   7   4   15.71    0.68
   1   7   5    7.18    0.55
   1   7   5    7.43    0.37
   1   7   5    7.12    0.25
   1   7   6   27.32    0.86
   1   7   6   26.27    1.04
   1   7   7   13.14    0.61
   1   7   7   12.64    0.61
   1   7   8   67.71    2.03
   1   7   8   70.16    2.33
   1   7   9    3.56    0.49
   1   7   9    3.62    0.49
   1   8  -4   43.09    1.53
   1   8  -3    7.49    0.55
   1   8  -2    9.39    0.80
   1   8  -1   10.25    0.31
   1   8  -1   10.56    0.55
   1   8  -1   10.68    0.31
   1   8   0   26.70    0.86
   1   8   0   25.72    0.61
   1   8   0   26.46    0.68
   1   8   1    9.39    0.31
   1   8   1    9.58    0.37
   1   8   1    9.64    0.43
   1   8   2    5.52    0.25
   1   8   2    5.71    0.31
   1   8   2    5.83    0.25
   1   8   3   28.79    0.92
   1   8   3   27.93    0.80
   1   8   3   26.89    0.86
   1   8   4   10.31    0.61
   1   8   4   10.50    0.43
   1   8   4   10.01    0.37
   1   8   5   16.57    0.37
   1   8   5   16.82    0.61
   1   8   5   16.63    0.61
   1   8   6   28.48    1.17
   1   8   6   26.39    0.86
   1   8   7    4.24    0.43
   1   8   7    4.60    0.43
   1   8   8    0.00    0.25
   1   8   8    0.06    0.43
   1   8   9    0.12    0.31
   1   8   9    0.00    0.31
   1   9   0    0.37    0.18
   1   9   0    0.37    0.18
   1   9   1    5.16    0.25
   1   9   1    5.16    0.25
   1   9   1    4.97    0.49
   1   9   2    7.24    0.31
   1   9   2    6.87    0.31
   1   9   2    7.06    0.37
   1   9   3    1.23    0.18
   1   9   3    1.17    0.18
   1   9   3    1.17    0.18
   1   9   4    0.06    0.18
   1   9   4    0.00    0.18
   1   9   4    0.06    0.12
   1   9   5    2.33    0.18
   1   9   5    2.46    0.31
   1   9   5    2.64    0.43
   1   9   6    0.06    0.18
   1   9   6    0.00    0.31
   1   9   7    1.96    0.37
   1   9   7    2.09    0.37
   1  10   2    0.18    0.12
   1  10   2    0.31    0.12
   1  10   3    0.00    0.25
   1  10   3    0.12    0.12
   1  10   4    3.01    0.31
   1  10   4    3.01    0.31
  -2   8   5    2.70    0.61
  -2   8   4    0.00    0.18
  -2   8   3   11.85    0.55
  -2   8   2   40.45    1.17
  -2   8   1   27.93    0.86
  -2   8   0    0.37    0.18
   2  -8   1   10.01    0.43
  -2   8  -1    9.45    0.37
  -2   7   7    1.90    0.37
  -2   7   6    0.12    0.25
  -2   7   5    8.23    0.49
  -2   7   4    4.30    0.37
  -2   7   3   27.74    0.86
  -2   7   2   12.03    0.49
   2  -7  -1    0.12    0.18
  -2   7   1    0.00    0.25
   2  -7   0    0.86    0.31
  -2   7   0    0.98    0.18
   2  -7   1    0.06    0.12
  -2   7  -1    0.06    0.25
   2  -7   2    3.50    0.37
   2  -7   3    0.74    0.25
  -2   7  -3    0.92    0.18
  -2   6   8   10.31    0.68
  -2   6   8   11.42    0.74
  -2   6   7   15.04    0.74
  -2   6   6    0.31    0.43
  -2   6   5    3.19    0.37
  -2   6   4    1.17    0.25
  -2   6   3    1.41    0.37
   2  -6  -2    5.59    0.37
  -2   6   2    5.16    0.49
   2  -6  -1    8.96    0.37
  -2   6   1    8.65    0.37
   2  -6   0   29.16    0.80
  -2   6   0   29.28    0.80
   2  -6   1    0.61    0.25
  -2   6  -1    0.61    0.18
   2  -6   2    1.41    0.18
  -2   6  -2    1.53    0.18
   2  -6   3    5.28    0.37
  -2   6  -3    5.40    0.25
   2  -6   4    1.96    0.18
  -2   6  -4    2.03    0.31
  -2   5   9   -0.06    0.43
  -2   5   9   -0.06    0.43
  -2   5   8    7.30    0.55
  -2   5   8    6.20    0.80
  -2   5   7    8.16    0.25
  -2   5   7    9.64    0.80
  -2   5   6    5.83    0.43
  -2   5   6    5.22    0.18
  -2   5   5    4.17    0.37
  -2   5   4   23.39    0.80
   2  -5  -3   45.48    1.17
  -2   5   3   44.69    1.17
   2  -5  -2    6.45    0.37
  -2   5   2    6.51    0.37
   2  -5  -1  336.13    7.80
  -2   5   1  302.31    7.18
   2  -5   0   66.54    1.53
  -2   5   0   69.24    1.60
   2  -5   1   81.21    1.84
  -2   5  -1   87.41    2.09
   2  -5   2  294.82    6.87
  -2   5  -2  278.06    6.45
   2  -5   3   64.57    1.41
  -2   5  -3   67.71    1.53
   2  -5   4   16.82    0.43
  -2   5  -4   17.62    0.61
   2  -5   5    6.57    0.31
  -2   5  -5    6.75    0.31
   2  -5   6    1.23    0.25
  -2   5  -6    1.10    0.25
  -2   4   9    6.14    0.49
  -2   4   9    6.81    0.55
  -2   4   8   19.15    0.80
  -2   4   8   20.07    0.86
  -2   4   7    0.55    0.25
  -2   4   7    0.00    0.12
  -2   4   6   39.28    0.86
  -2   4   6   41.86    1.17
  -2   4   5    3.19    0.31
  -2   4   4   42.91    1.10
   2  -4  -3  101.22    2.27
  -2   4   3  104.84    2.39
   2  -4  -2  132.95    2.95
  -2   4   2  135.47    3.01
   2  -4  -1    5.46    0.25
  -2   4   1    5.59    0.37
   2  -4   0   34.25    0.80
  -2   4   0   36.40    0.86
   2  -4   1   37.08    0.86
  -2   4  -1   38.61    0.92
   2  -4   2   20.32    0.61
  -2   4  -2   21.85    0.68
   2  -4   3  349.45    7.98
  -2   4  -3  309.98    7.18
   2  -4   4   44.81    1.04
  -2   4  -4   50.09    1.35
   2  -4   5    3.19    0.18
  -2   4  -5    3.44    0.18
   2  -4   6    6.45    0.37
  -2   4  -6    6.45    0.25
   2  -4   7    2.95    0.31
  -2   4  -7    3.31    0.43
  -2   4  -7    2.76    0.31
  -2   4  -8    2.33    0.43
  -2   3  10    1.47    0.37
  -2   3  10    1.66    0.37
  -2   3   9   -0.06    0.31
  -2   3   9    1.35    0.31
  -2   3   8    9.88    0.25
  -2   3   8   10.86    0.55
  -2   3   8   10.62    0.74
  -2   3   7   18.48    0.43
  -2   3   7   19.27    0.92
  -2   3   6   19.95    0.43
  -2   3   6   21.18    0.68
  -2   3   5   18.11    0.55
  -2   3   5   18.23    0.49
   2  -3  -4    0.31    0.18
  -2   3   4    0.18    0.18
   2  -3  -3  174.33    3.87
  -2   3   3  179.30    4.11
   2  -3  -2   75.44    1.60
  -2   3   2   75.44    1.66
   2  -3  -1   11.72    0.37
  -2   3   1   12.28    0.37
   2  -3   0    4.48    0.31
  -2   3   0    4.36    0.18
   2  -3   1  506.59   11.54
  -2   3  -1  491.25   11.29
   2  -3   2  167.27    3.62
  -2   3  -2  157.75    3.38
   2  -3   3  125.40    2.58
  -2   3  -3  125.28    2.64
   2  -3   4    0.49    0.12
  -2   3  -4    0.55    0.12
   2  -3   5    0.61    0.25
  -2   3  -5    0.98    0.18
   2  -3   6    0.12    0.12
  -2   3  -6    0.12    0.18
   2  -3   7    0.18    0.12
  -2   3  -7    0.12    0.18
   2  -3   8    0.61    0.31
  -2   3  -8    0.86    0.31
  -2   3  -8    0.68    0.25
  -2   2  10    1.60    0.31
  -2   2  10    1.47    0.31
  -2   2   9    4.54    0.55
  -2   2   9    4.05    0.37
  -2   2   8    1.96    0.31
  -2   2   8    2.15    0.25
  -2   2   7    5.65    0.37
  -2   2   7    5.77    0.31
  -2   2   6   51.25    1.29
  -2   2   6   51.25    1.10
  -2   2   5    2.58    0.12
  -2   2   5    2.76    0.25
   2  -2  -4   69.36    1.53
  -2   2   4   66.48    1.35
  -2   2   4   66.72    1.47
   2  -2  -3  276.35    6.08
  -2   2   3  263.95    5.83
   2  -2  -2  200.91    4.24
  -2   2   2  198.27    4.24
   2  -2  -1   18.54    0.49
  -2   2   1   24.43    0.55
   2  -2   0   53.22    1.10
  -2   2   0   52.73    1.10
   2  -2   1  360.44    7.80
  -2   2  -1  334.04    7.37
   2  -2   2   46.41    0.98
  -2   2  -2   47.76    1.04
   2  -2   3   16.70    0.43
  -2   2  -3   17.37    0.43
   2  -2   4    0.43    0.12
  -2   2  -4    0.49    0.18
   2  -2   5    9.45    0.31
  -2   2  -5    9.45    0.31
   2  -2   6   24.86    0.68
  -2   2  -6   24.86    0.68
   2  -2   7    1.60    0.18
  -2   2  -7    1.72    0.18
   2  -2   8    3.25    0.25
  -2   2  -8    3.38    0.31
  -2   2  -8    2.82    0.31
   2  -2   9    4.73    0.37
  -2   2  -9    5.83    0.43
  -2   2  -9    5.16    0.31
  -2   1  10    0.00    0.18
  -2   1  10   -0.06    0.18
  -2   1   9    1.53    0.37
  -2   1   9    1.84    0.25
  -2   1   8    1.53    0.37
  -2   1   8    1.60    0.25
  -2   1   7   11.17    0.43
  -2   1   7   11.11    0.43
  -2   1   7   11.11    0.43
  -2   1   6   42.29    0.92
  -2   1   6   42.54    1.04
  -2   1   5   51.32    1.17
  -2   1   5   51.19    1.17
  -2   1   4   35.11    0.74
  -2   1   4   35.30    0.80
   2  -1  -3    0.55    0.12
  -2   1   3    0.68    0.12
  -2   1   3    0.74    0.12
   2  -1  -2  135.78    2.76
  -2   1   2  137.56    2.82
   2  -1  -1  305.01    6.45
  -2   1   1  293.59    6.20
   2  -1   0    4.97    0.25
  -2   1   0    3.87    0.18
   2  -1   1 1527.88   39.41
  -2   1  -1 1525.54   39.65
   2  -1   2 2047.54   55.55
  -2   1  -2 2017.83   55.18
   2  -1   3    0.31    0.12
  -2   1  -3    0.43    0.12
   2  -1   4  195.93    4.11
  -2   1  -4  180.77    3.87
   2  -1   5  126.08    2.70
  -2   1  -5  127.43    2.76
   2  -1   6   63.90    1.41
  -2   1  -6   64.02    1.47
   2  -1   7    7.24    0.55
  -2   1  -7    6.94    0.31
   2  -1   8    0.18    0.25
  -2   1  -8    0.06    0.18
  -2   1  -8    0.06    0.12
   2  -1   9    0.18    0.18
  -2   1  -9    0.06    0.18
  -2   1  -9    0.18    0.18
   2  -1  10    5.65    0.37
  -2   1 -10    5.83    0.43
  -2   0  10    4.48    0.37
  -2   0  10    4.36    0.31
   2   0  -9    1.29    0.25
  -2   0   9    1.04    0.31
  -2   0   9    1.29    0.25
   2   0  -8    2.88    0.25
  -2   0   8    2.82    0.25
  -2   0   8    2.70    0.25
   2   0  -7   20.81    0.92
  -2   0   7   18.48    0.55
  -2   0   7   19.21    0.74
   2   0  -6   14.92    0.61
  -2   0   6   13.93    0.43
  -2   0   6   14.06    0.43
  -2   0   6   13.75    0.43
   2   0  -5  132.71    2.95
  -2   0   5  130.38    2.95
  -2   0   5  126.14    2.70
   2   0  -4 2142.63   59.79
  -2   0   4 2101.99   58.93
  -2   0   4 2067.19   57.45
   2   0  -3  810.93   19.46
  -2   0   3  819.95   19.70
  -2   0   3  840.02   20.19
   2   0  -2    0.55    0.12
  -2   0   2    0.00    0.12
  -2   0   2    0.00    0.12
   2   0  -1  570.80   12.71
  -2   0   1  546.61   12.22
   2   0   0   63.90    1.29
  -2   0   0   63.84    1.23
   2   0   1    8.16    0.25
  -2   0  -1    8.47    0.25
   2   0   2    4.97    0.18
  -2   0  -2    4.79    0.18
   2   0   3   57.64    1.17
  -2   0  -3   57.58    1.23
   2   0   4    6.08    0.37
  -2   0  -4    4.60    0.31
   2   0   5   11.05    0.49
  -2   0  -5   10.99    0.37
   2   0   6   54.57    1.29
  -2   0  -6   56.10    1.41
   2   0   7   68.75    1.66
  -2   0  -7   69.24    1.66
   2   0   8    2.15    0.37
  -2   0  -8    2.39    0.25
  -2   0  -8    2.52    0.25
   2   0   9    8.78    0.43
  -2   0  -9    8.96    0.55
  -2   0  -9    7.67    0.37
   2   0  10    0.31    0.25
  -2   0 -10    0.06    0.18
   2   1  -9    3.68    0.49
  -2  -1   9    3.07    0.25
  -2  -1   9    3.50    0.25
   2   1  -8    1.78    0.25
  -2  -1   8    1.84    0.25
  -2  -1   8    1.66    0.18
   2   1  -7   17.68    0.61
  -2  -1   7   16.51    0.49
  -2  -1   7   16.94    0.61
   2   1  -6    4.42    0.43
  -2  -1   6    4.54    0.25
  -2  -1   6    4.30    0.18
   2   1  -5    0.55    0.25
  -2  -1   5    0.61    0.12
  -2  -1   5    0.55    0.12
  -2  -1   5    0.74    0.18
   2   1  -4   22.90    0.74
  -2  -1   4   21.61    0.68
  -2  -1   4   20.19    0.43
   2   1  -3  351.29    7.86
  -2  -1   3  341.96    7.55
  -2  -1   3  351.91    7.61
   2   1  -2  288.01    5.89
   2   1  -2  294.94    6.32
  -2  -1   2  295.86    6.26
  -2  -1   2  292.67    6.02
   2   1  -1   16.08    0.31
  -2  -1   1   16.21    0.37
  -2  -1   1   16.08    0.31
   2   1   0  677.97   15.35
  -2  -1   0  676.19   15.35
   2   1   1 1241.40   30.94
  -2  -1  -1 1237.72   30.81
   2   1   2    2.64    0.12
  -2  -1  -2    2.58    0.18
   2   1   3    0.37    0.12
  -2  -1  -3    0.31    0.12
   2   1   4   21.48    0.98
  -2  -1  -4   32.53    0.74
   2   1   5   16.88    0.49
  -2  -1  -5   17.25    0.49
   2   1   6   97.91    2.21
  -2  -1  -6  102.20    2.27
   2   1   7   83.66    1.96
  -2  -1  -7   86.61    2.03
   2   1   8    5.89    0.61
  -2  -1  -8    8.29    0.37
  -2  -1  -8    7.67    0.37
   2   1   9    5.16    0.37
  -2  -1  -9    5.03    0.25
   2   1  10    0.80    0.25
  -2  -1 -10    0.98    0.31
   2   1  11    6.14    0.49
  -2  -1 -11    5.52    0.31
   2   2  -9    0.49    0.43
   2   2  -8    0.31    0.25
  -2  -2   8    0.49    0.18
  -2  -2   8    0.12    0.18
   2   2  -7   48.25    1.53
  -2  -2   7   46.47    1.04
  -2  -2   7   45.79    0.98
   2   2  -6   11.29    0.49
  -2  -2   6   10.93    0.31
  -2  -2   6   10.80    0.25
   2   2  -5   33.15    0.86
  -2  -2   5   32.16    0.68
  -2  -2   5   33.21    0.74
   2   2  -4   69.61    1.60
  -2  -2   4   68.50    1.53
  -2  -2   4   65.80    1.29
  -2  -2   4   67.71    1.35
   2   2  -3   61.01    1.35
  -2  -2   3   58.31    1.10
  -2  -2   3   60.46    1.29
   2   2  -2    0.06    0.12
   2   2  -2    0.06    0.06
  -2  -2   2    0.25    0.06
  -2  -2   2    0.00    0.12
   2   2  -1    4.67    0.25
  -2  -2   1    4.97    0.25
  -2  -2   1    5.22    0.18
   2   2   0  433.12    9.15
   2   2   0  415.93    9.08
  -2  -2   0  421.21    9.15
  -2  -2   0  437.72    9.27
   2   2   1  114.54    2.15
  -2  -2  -1  109.51    2.09
  -2  -2  -1  110.67    2.15
   2   2   2   60.28    1.17
  -2  -2  -2   62.06    1.23
   2   2   3    8.29    0.25
  -2  -2  -3    8.72    0.25
   2   2   4   21.55    0.55
  -2  -2  -4   10.01    0.43
   2   2   5    0.74    0.18
  -2  -2  -5    5.34    0.25
   2   2   6  325.02    7.49
  -2  -2  -6  330.48    7.67
   2   2   7   51.56    1.47
  -2  -2  -7   54.57    1.10
  -2  -2  -7   55.00    1.35
   2   2   8   11.97    0.55
  -2  -2  -8   10.99    0.31
   2   2   9   27.01    0.86
  -2  -2  -9   26.15    0.74
   2   2  10   15.47    0.68
  -2  -2 -10   14.42    0.43
   2   2  11    0.49    0.49
   2   3  -9    0.98    0.37
   2   3  -8    2.95    0.37
   2   3  -7   48.06    1.66
  -2  -3   7   42.91    0.86
  -2  -3   7   41.99    0.86
   2   3  -6   56.29    1.53
  -2  -3   6   51.93    1.04
  -2  -3   6   53.03    1.04
   2   3  -5    8.29    0.43
  -2  -3   5    7.80    0.18
  -2  -3   5    7.73    0.18
   2   3  -4    8.35    0.55
  -2  -3   4    7.55    0.12
  -2  -3   4    7.80    0.18
   2   3  -3  145.23    3.19
  -2  -3   3  141.67    3.07
   2   3  -2    4.24    0.25
  -2  -3   2    4.91    0.25
   2   3  -1   18.23    0.31
   2   3  -1   18.97    0.49
  -2  -3   1   19.03    0.31
  -2  -3   1   19.77    0.49
   2   3   0   28.54    0.49
   2   3   0   28.05    0.61
  -2  -3   0   28.48    0.49
  -2  -3   0   27.56    0.61
   2   3   1   86.80    1.72
   2   3   1   80.72    1.60
  -2  -3  -1   84.83    1.66
  -2  -3  -1   86.06    1.72
   2   3   2  372.10    7.86
   2   3   2  362.89    7.80
  -2  -3  -2  359.70    7.73
  -2  -3  -2  362.89    7.61
   2   3   3  323.36    7.18
  -2  -3  -3  329.93    6.75
  -2  -3  -3  317.41    6.94
   2   3   4  749.42   18.05
  -2  -3  -4  774.04   18.72
  -2  -3  -4  784.10   17.99
   2   3   5    1.29    0.31
  -2  -3  -5    1.41    0.31
   2   3   6    4.30    0.31
  -2  -3  -6    4.05    0.31
   2   3   7    2.64    0.31
  -2  -3  -7    2.70    0.12
   2   3   8    4.97    0.61
   2   3   9    0.80    0.31
  -2  -3  -9    0.86    0.12
   2   3  10   17.92    0.98
   2   3  11   22.40    0.98
   2   4  -8    1.78    0.68
   2   4  -7   16.63    0.80
   2   4  -6   58.56    1.96
   2   4  -5    5.16    0.43
   2   4  -4   61.08    1.60
   2   4  -3    0.49    0.31
   2   4  -2   17.49    0.55
   2   4  -1   45.24    1.17
   2   4  -1   49.60    0.74
  -2  -4   1   43.40    0.98
   2   4   0    4.30    0.18
   2   4   0    4.67    0.25
  -2  -4   0    4.48    0.18
   2   4   1   75.19    1.53
   2   4   1   79.61    1.53
  -2  -4  -1   76.18    1.53
   2   4   2  145.91    2.95
   2   4   2  152.17    3.13
  -2  -4  -2  155.05    3.07
   2   4   3   76.24    1.47
   2   4   3   69.85    1.47
  -2  -4  -3   75.93    1.41
   2   4   4  177.46    3.87
  -2  -4  -4  216.87    4.11
   2   4   5  102.51    2.27
   2   4   6  113.62    2.58
   2   4   7    9.64    0.49
   2   4   8   23.26    1.10
   2   4   9    0.00    0.18
   2   4  10    0.00    0.25
   2   4  11    3.13    0.49
   2   5  -7    2.03    0.43
   2   5  -6    1.35    0.37
   2   5  -5    0.68    0.31
   2   5  -4    0.18    0.25
   2   5  -3   13.07    0.55
   2   5  -2   99.99    2.33
   2   5  -1  117.61    2.03
   2   5  -1  100.54    2.27
   2   5  -1  113.93    2.03
   2   5   0    3.68    0.12
   2   5   0    3.50    0.12
   2   5   0    3.68    0.25
   2   5   1  177.09    3.56
   2   5   1  156.89    3.44
   2   5   1  165.55    3.38
   2   5   2  197.53    4.11
   2   5   2  190.53    4.11
   2   5   3   95.63    2.03
   2   5   3   99.56    2.03
   2   5   4   36.03    0.68
   2   5   4   33.33    0.80
   2   5   5    1.53    0.31
   2   5   6    8.59    0.43
   2   5   7    2.70    0.31
   2   5   8    0.25    0.25
   2   5   9    8.23    0.49
   2   5  10    0.31    0.31
   2   5  11    1.84    0.74
   2   5  11    1.96    0.43
   2   6  -6    0.18    0.31
   2   6  -5    1.23    0.55
   2   6  -4   -0.06    0.25
   2   6  -3   16.63    0.68
   2   6  -2   30.14    0.92
   2   6  -1  141.18    2.58
   2   6  -1  140.87    2.64
   2   6  -1  126.69    3.19
   2   6   0    1.10    0.12
   2   6   0    1.10    0.12
   2   6   0    1.29    0.18
   2   6   1   21.30    0.55
   2   6   1   20.75    0.49
   2   6   1   21.30    0.55
   2   6   2   94.28    1.96
   2   6   2   95.08    2.03
   2   6   2   96.06    2.15
   2   6   3  100.85    2.21
   2   6   3  100.61    2.09
   2   6   3   97.78    2.09
   2   6   4    1.29    0.18
   2   6   4    1.04    0.06
   2   6   5   42.78    1.10
   2   6   6    2.95    0.31
   2   6   7   63.72    1.66
   2   6   8    7.49    0.49
   2   6   9    2.82    0.37
   2   6  10    0.80    0.37
   2   6  10    0.98    0.37
   2   7  -5   -0.06    0.49
   2   7  -4    4.30    0.49
   2   7  -3   21.79    0.86
   2   7  -2   18.60    0.74
   2   7  -1   13.07    0.74
   2   7  -1   11.91    0.25
   2   7  -1   11.85    0.25
   2   7   0   12.15    0.61
   2   7   0   10.93    0.25
   2   7   0   10.74    0.25
   2   7   1   48.06    0.98
   2   7   1   47.69    0.98
   2   7   1   48.43    1.17
   2   7   2   94.84    2.15
   2   7   2   93.79    2.09
   2   7   2   95.27    2.09
   2   7   3   25.29    0.61
   2   7   3   24.74    0.74
   2   7   3   25.41    0.68
   2   7   4   18.41    0.55
   2   7   4   18.29    0.68
   2   7   4   17.62    0.43
   2   7   5   75.75    1.84
   2   7   5   75.07    2.03
   2   7   5   73.11    1.47
   2   7   6  130.93    3.19
   2   7   6  132.95    3.25
   2   7   7    1.78    0.55
   2   7   7    2.09    0.37
   2   7   8   67.64    1.96
   2   7   8   67.83    1.96
   2   7   9   67.40    2.03
   2   7   9   71.27    2.52
   2   7  10   17.80    0.92
   2   7  10   17.49    0.92
   2   8  -4    4.79    0.55
   2   8  -3   16.88    0.80
   2   8  -2   45.98    1.41
   2   8  -1    4.36    0.37
   2   8  -1    3.81    0.12
   2   8  -1    3.93    0.12
   2   8   0   25.04    0.80
   2   8   0   23.69    0.49
   2   8   0   24.00    0.55
   2   8   1   21.55    0.49
   2   8   1   22.77    0.68
   2   8   1   21.79    0.55
   2   8   2   40.02    1.04
   2   8   2   39.16    0.92
   2   8   2   40.08    0.92
   2   8   3   33.58    0.98
   2   8   3   34.74    0.98
   2   8   3   33.58    0.86
   2   8   4   16.08    0.68
   2   8   4   15.28    0.43
   2   8   4   15.78    0.68
   2   8   5    0.12    0.06
   2   8   5    0.31    0.18
   2   8   5    0.12    0.18
   2   8   6    4.48    0.37
   2   8   6    4.42    0.37
   2   8   7    5.28    0.43
   2   8   7    5.22    0.68
   2   8   8    0.12    0.25
   2   8   8    0.12    0.25
   2   8   9    2.09    0.68
   2   8   9    1.90    0.43
   2   9   0    0.80    0.25
   2   9   1    6.02    0.25
   2   9   1    5.65    0.18
   2   9   1    6.08    0.37
   2   9   2    4.73    0.25
   2   9   2    5.16    0.43
   2   9   2    4.79    0.25
   2   9   3    1.96    0.18
   2   9   3    1.78    0.18
   2   9   3    1.72    0.18
   2   9   4    2.33    0.18
   2   9   4    2.27    0.25
   2   9   4    2.21    0.25
   2   9   5    0.00    0.12
   2   9   5    0.00    0.12
   2   9   5    0.00    0.25
   2   9   6    0.00    0.25
   2   9   6    1.17    0.25
   2   9   7   37.81    1.23
   2   9   7   36.09    1.17
   2   9   8   19.03    1.17
   2   9   8   20.26    0.86
   2  10   2    4.91    0.25
   2  10   2    4.85    0.31
   2  10   3   11.48    0.43
   2  10   3   11.79    0.43
   2  10   4    0.00    0.31
   2  10   4    0.43    0.18
   2  10   5    0.06    0.18
   2  10   5    0.00    0.18
   2  10   6    6.26    0.43
   2  10   6    6.32    0.43
  -3   7   5    9.45    0.55
  -3   7   4    7.18    0.49
  -3   7   3    2.82    0.55
   3  -7  -2    0.06    0.25
  -3   7   2   -0.06    0.31
   3  -7  -1    4.05    0.55
  -3   7   1    3.87    0.49
   3  -7   0    9.33    0.43
  -3   7   0    9.15    0.43
   3  -7   1    0.86    0.37
  -3   7  -1    0.98    0.25
   3  -7   2   19.70    0.68
  -3   7  -2   19.58    0.68
  -3   6   7    5.52    0.55
  -3   6   6    0.12    0.31
  -3   6   6    0.18    0.12
  -3   6   5    0.31    0.43
  -3   6   4    0.55    0.25
   3  -6  -3   13.81    0.61
  -3   6   3   13.20    0.61
   3  -6  -2   38.98    1.10
  -3   6   2   36.77    1.04
   3  -6  -1    4.24    0.49
  -3   6   1    4.42    0.31
   3  -6   0    4.97    0.31
  -3   6   0    4.79    0.31
   3  -6   1    7.24    0.37
  -3   6  -1    7.18    0.37
   3  -6   2    9.33    0.49
  -3   6  -2    9.45    0.37
   3  -6   3    0.00    0.12
  -3   6  -3    0.00    0.12
   3  -6   4    5.52    0.31
  -3   6  -4    5.77    0.31
  -3   5   8    1.90    0.43
  -3   5   7   13.38    0.74
  -3   5   6   18.72    1.04
  -3   5   6   18.23    0.61
  -3   5   5    9.51    0.55
   3  -5  -4    0.31    0.25
  -3   5   4    0.12    0.43
   3  -5  -3  114.97    2.82
  -3   5   3  114.97    2.82
   3  -5  -2   17.56    0.61
  -3   5   2   17.74    0.68
   3  -5  -1   27.93    0.98
  -3   5   1   27.93    0.80
   3  -5   0  128.54    3.19
  -3   5   0  130.01    3.07
   3  -5   1   71.14    1.66
  -3   5  -1   71.88    1.72
   3  -5   2   48.80    1.17
  -3   5  -2   50.21    1.23
   3  -5   3   27.99    0.86
  -3   5  -3   28.60    0.80
   3  -5   4    1.17    0.18
  -3   5  -4    1.23    0.18
   3  -5   5   20.13    0.68
  -3   5  -5   20.87    0.61
   3  -5   6    4.48    0.25
  -3   5  -6    4.60    0.31
  -3   4   8    6.63    0.49
  -3   4   7    2.76    0.37
  -3   4   7    2.33    0.18
  -3   4   6   15.35    0.68
  -3   4   6   14.92    0.43
  -3   4   5   17.13    0.86
   3  -4  -4   23.63    0.80
  -3   4   4   23.82    0.80
   3  -4  -3   11.29    0.49
  -3   4   3   10.86    0.49
   3  -4  -2    1.60    0.37
  -3   4   2    1.47    0.25
   3  -4  -1   31.31    0.98
  -3   4   1   31.12    0.86
   3  -4   0    0.68    0.31
  -3   4   0    0.61    0.18
   3  -4   1  313.79    7.37
  -3   4  -1  282.97    6.63
   3  -4   2   88.02    2.21
  -3   4  -2   85.51    1.96
   3  -4   3   12.83    0.43
  -3   4  -3   13.07    0.49
   3  -4   4    0.80    0.18
  -3   4  -4    0.86    0.18
   3  -4   5    0.61    0.25
  -3   4  -5    0.98    0.18
   3  -4   6    0.06    0.12
  -3   4  -6    0.06    0.12
   3  -4   7    3.81    0.25
  -3   4  -7    3.81    0.25
  -3   3   9    0.12    0.37
  -3   3   9    0.06    0.25
  -3   3   8    3.38    0.25
  -3   3   8    3.74    0.37
  -3   3   7    2.58    0.18
  -3   3   7    2.76    0.55
  -3   3   6    1.72    0.25
  -3   3   6    1.41    0.31
  -3   3   5   16.82    0.61
  -3   3   5   16.45    0.49
   3  -3  -4    3.56    0.43
  -3   3   4    3.68    0.31
   3  -3  -3    0.00    0.18
  -3   3   3    0.80    0.31
   3  -3  -2   17.19    0.49
  -3   3   2   18.11    0.68
   3  -3  -1  140.51    3.25
  -3   3   1  138.85    3.07
   3  -3   0   37.87    0.92
  -3   3   0   38.98    0.92
   3  -3   1  113.19    2.46
  -3   3  -1  116.01    2.58
   3  -3   2   42.17    0.98
  -3   3  -2   42.35    0.98
   3  -3   3   18.17    0.49
  -3   3  -3   17.92    0.55
   3  -3   4    5.77    0.31
  -3   3  -4    6.08    0.31
   3  -3   5    6.51    0.43
  -3   3  -5    6.57    0.37
   3  -3   6   11.23    0.37
  -3   3  -6   11.79    0.43
   3  -3   7    4.79    0.31
  -3   3  -7    4.73    0.31
   3  -3   8   -0.12    0.25
  -3   3  -8   -0.12    0.25
  -3   2   9    0.00    0.25
  -3   2   9    0.12    0.18
  -3   2   8    7.30    0.49
  -3   2   8    8.47    0.49
  -3   2   8    8.53    0.43
  -3   2   7    5.59    0.37
  -3   2   7    5.77    0.37
  -3   2   6   16.70    0.49
  -3   2   6   17.86    0.86
  -3   2   5    9.45    0.43
  -3   2   5   10.01    0.43
   3  -2  -4   11.17    0.43
  -3   2   4   12.09    0.37
  -3   2   4   11.54    0.55
   3  -2  -3   28.36    0.74
  -3   2   3   28.67    0.74
   3  -2  -2  300.90    6.75
  -3   2   2  299.18    6.75
   3  -2  -1  108.22    2.27
  -3   2   1  109.88    2.33
   3  -2   0    0.06    0.12
  -3   2   0    0.12    0.12
   3  -2   1    2.52    0.31
  -3   2  -1    1.60    0.18
   3  -2   2   23.14    0.55
  -3   2  -2   23.33    0.61
   3  -2   3    1.10    0.18
  -3   2  -3    1.04    0.18
   3  -2   4    3.99    0.25
  -3   2  -4    4.30    0.25
   3  -2   5   29.46    0.74
  -3   2  -5   29.16    0.74
   3  -2   6   16.33    0.55
  -3   2  -6   16.27    0.55
   3  -2   7   43.21    1.29
  -3   2  -7   42.48    1.10
   3  -2   8   32.29    0.92
  -3   2  -8   31.61    1.04
   3  -2   9    0.68    0.37
  -3   2  -9    0.92    0.25
  -3   2  -9    0.86    0.31
  -3   1   9    0.12    0.18
  -3   1   9    0.12    0.37
  -3   1   8   12.58    0.55
  -3   1   8   12.71    0.55
  -3   1   8   12.58    0.55
  -3   1   7   56.59    1.47
  -3   1   7   57.39    1.53
  -3   1   6   27.32    0.74
  -3   1   6   27.56    0.80
  -3   1   5   13.32    0.49
  -3   1   5   13.50    0.49
   3  -1  -4    0.74    0.12
  -3   1   4    0.25    0.18
  -3   1   4    0.31    0.12
   3  -1  -3   18.11    0.55
  -3   1   3   18.41    0.49
  -3   1   3   19.40    0.49
   3  -1  -2  168.62    3.56
  -3   1   2  170.03    3.74
   3  -1  -1  763.60   18.23
  -3   1   1  742.79   17.92
   3  -1   0  563.19   12.95
  -3   1   0  553.73   12.83
   3  -1   1    5.28    0.25
  -3   1  -1    4.48    0.25
   3  -1   2   59.36    1.29
  -3   1  -2   60.83    1.35
   3  -1   3   22.65    0.55
  -3   1  -3   23.33    0.55
   3  -1   4   30.20    0.74
  -3   1  -4   30.94    0.74
   3  -1   5   10.31    0.43
  -3   1  -5   10.68    0.43
   3  -1   6    0.25    0.25
  -3   1  -6    0.25    0.18
   3  -1   7    8.96    0.37
  -3   1  -7    8.84    0.55
   3  -1   8   18.78    0.61
  -3   1  -8   19.21    0.61
   3  -1   9   45.79    1.35
  -3   1  -9   45.79    1.35
  -3   1  -9   47.33    1.35
  -3   0   9   17.00    0.61
  -3   0   9   17.74    0.68
  -3   0   8    3.38    0.31
  -3   0   8    3.56    0.43
  -3   0   7   78.39    1.96
  -3   0   7   76.61    1.84
  -3   0   7   78.88    1.90
  -3   0   6  372.10    9.02
  -3   0   6  366.76    9.27
  -3   0   5   63.59    1.47
  -3   0   5   61.01    1.41
   3   0  -4   15.78    0.55
  -3   0   4   14.36    0.43
  -3   0   4   15.10    0.55
   3   0  -3   20.69    0.61
  -3   0   3   21.91    0.55
  -3   0   3   21.67    0.61
   3   0  -2   62.06    1.29
  -3   0   2   64.27    1.41
  -3   0   2   63.47    1.35
   3   0  -1   38.98    0.80
  -3   0   1   39.96    0.98
   3   0   0  123.69    2.52
  -3   0   0  124.98    2.70
   3   0   1    1.96    0.18
  -3   0  -1    1.84    0.18
   3   0   2   13.69    0.37
  -3   0  -2   14.42    0.43
   3   0   3   22.59    0.55
  -3   0  -3   21.61    0.61
   3   0   4   41.56    0.92
  -3   0  -4   43.40    0.98
   3   0   5   21.61    0.61
  -3   0  -5   22.47    0.61
   3   0   6    7.43    0.55
  -3   0  -6    7.49    0.55
   3   0   7   72.68    1.84
  -3   0  -7   72.80    1.78
   3   0   8    7.55    0.43
  -3   0  -8    7.61    0.37
   3   0   9   16.57    0.86
  -3   0  -9   16.02    0.61
   3   0  10    0.12    0.25
  -3   0 -10    0.00    0.18
  -3   0 -10    0.12    0.18
  -3  -1   9    0.00    0.12
  -3  -1   9    0.12    0.12
   3   1  -8    0.37    0.25
  -3  -1   8    0.12    0.12
  -3  -1   8    0.00    0.12
   3   1  -7   18.97    0.74
  -3  -1   7   17.37    0.61
  -3  -1   7   17.62    0.55
  -3  -1   7   17.43    0.49
   3   1  -6   31.12    0.98
  -3  -1   6   31.55    1.04
  -3  -1   6   30.45    0.80
   3   1  -5   27.01    0.92
  -3  -1   5   26.09    0.74
  -3  -1   5   25.60    0.80
   3   1  -4    5.59    0.31
  -3  -1   4    5.46    0.18
   3   1  -3    1.10    0.12
  -3  -1   3    1.23    0.12
  -3  -1   3    1.10    0.18
   3   1  -2   10.93    0.31
  -3  -1   2   11.11    0.43
  -3  -1   2   11.97    0.31
   3   1  -1  428.64    9.39
  -3  -1   1  421.88    9.45
  -3  -1   1  425.14    9.39
   3   1   0  188.32    3.81
  -3  -1   0  195.20    3.99
   3   1   1   51.32    1.04
  -3  -1  -1   52.60    1.17
   3   1   2   15.47    0.37
  -3  -1  -2   15.78    0.43
   3   1   3  309.61    7.12
  -3  -1  -3  325.39    7.30
   3   1   4   98.27    2.27
  -3  -1  -4   95.33    2.27
   3   1   5   10.37    0.37
  -3  -1  -5   10.31    0.37
   3   1   6   28.97    0.98
  -3  -1  -6   31.55    1.04
   3   1   7   55.06    1.60
  -3  -1  -7   56.35    1.41
   3   1   8    0.43    0.37
  -3  -1  -8    0.37    0.25
   3   1   9    6.45    0.43
  -3  -1  -9    5.95    0.31
  -3  -1  -9    6.38    0.37
   3   1  10    2.76    0.43
  -3  -1 -10    2.58    0.25
  -3  -1 -10    3.19    0.31
   3   2  -9    2.95    0.37
   3   2  -8    0.18    0.25
  -3  -2   8    0.00    0.12
  -3  -2   8    0.12    0.12
   3   2  -7   28.17    0.92
  -3  -2   7   28.54    0.80
  -3  -2   7   26.76    0.61
   3   2  -6   39.28    1.47
  -3  -2   6   38.67    0.98
  -3  -2   6   38.06    0.86
  -3  -2   6   39.53    1.04
   3   2  -5    2.52    0.25
  -3  -2   5    2.21    0.12
  -3  -2   5    2.46    0.37
   3   2  -4    6.32    0.49
  -3  -2   4    6.26    0.31
  -3  -2   4    6.20    0.25
   3   2  -3    0.92    0.18
  -3  -2   3    1.23    0.18
   3   2  -2   17.25    0.37
   3   2  -2   18.23    0.68
  -3  -2   2   18.17    0.49
  -3  -2   2   18.66    0.43
   3   2  -1   64.51    1.23
   3   2  -1   72.43    1.66
  -3  -2   1   65.31    1.41
  -3  -2   1   79.25    1.78
   3   2   0   28.42    0.55
  -3  -2   0   28.97    0.74
  -3  -2   0   28.67    0.61
   3   2   1   72.25    1.41
  -3  -2  -1   73.54    1.47
   3   2   2    3.38    0.18
  -3  -2  -2    3.44    0.18
   3   2   3  208.89    4.42
  -3  -2  -3  192.56    4.24
   3   2   4  679.32   16.51
  -3  -2  -4  685.83   16.51
   3   2   5    3.07    0.25
  -3  -2  -5    3.01    0.37
   3   2   6   24.37    0.68
  -3  -2  -6   24.61    0.74
   3   2   7  186.05    4.42
  -3  -2  -7  193.79    4.54
   3   2   8   98.76    2.58
  -3  -2  -8  100.24    2.52
   3   2   9   11.79    0.55
  -3  -2  -9   11.42    0.37
  -3  -2  -9   11.11    0.55
   3   2  10   43.27    1.66
  -3  -2 -10   40.57    1.04
   3   2  11   12.95    0.74
   3   3  -8   10.74    0.68
   3   3  -7   15.47    0.92
  -3  -3   7   12.28    0.31
  -3  -3   7   13.01    0.31
   3   3  -6    3.50    0.37
  -3  -3   6    3.25    0.18
  -3  -3   6    3.44    0.18
   3   3  -5   54.08    1.41
  -3  -3   5   52.85    1.35
  -3  -3   5   51.01    1.04
  -3  -3   5   49.97    0.98
   3   3  -4    9.88    0.43
  -3  -3   4    9.64    0.37
  -3  -3   4    9.51    0.25
  -3  -3   4    9.21    0.18
   3   3  -3    8.23    0.37
  -3  -3   3    7.98    0.37
  -3  -3   3    7.98    0.18
   3   3  -2  136.58    3.19
   3   3  -2  144.56    2.70
  -3  -3   2  149.65    2.88
  -3  -3   2  131.05    3.01
   3   3  -1   55.98    1.23
   3   3  -1   54.14    0.98
  -3  -3   1   55.86    1.04
  -3  -3   1   54.08    1.23
   3   3   0   10.86    0.43
   3   3   0   10.07    0.31
  -3  -3   0   10.86    0.37
  -3  -3   0   10.56    0.37
   3   3   1   87.78    1.72
  -3  -3  -1   87.96    1.84
  -3  -3  -1   85.20    1.78
   3   3   2 1907.22   51.19
  -3  -3  -2 1856.21   50.15
  -3  -3  -2 1859.84   50.40
   3   3   3  208.46    4.54
  -3  -3  -3  227.73    4.73
  -3  -3  -3  203.12    4.42
   3   3   4    4.85    0.31
  -3  -3  -4    0.25    0.25
   3   3   5  141.43    3.13
  -3  -3  -5  149.16    3.31
   3   3   6    4.42    0.31
  -3  -3  -6    5.28    0.31
   3   3   7   39.96    1.10
  -3  -3  -7   41.49    1.10
   3   3   8   63.29    2.15
  -3  -3  -8   67.77    1.72
   3   3   9   50.76    1.47
  -3  -3  -9   51.87    1.47
  -3  -3  -9   48.86    1.17
   3   3  10    0.49    0.31
   3   3  11   17.74    0.86
   3   4  -8    8.96    0.61
   3   4  -7   12.52    0.68
   3   4  -6   45.67    1.66
   3   4  -5    2.58    0.37
   3   4  -4   32.16    0.98
  -3  -4   4   31.31    0.86
   3   4  -3   10.62    0.43
  -3  -4   3   10.50    0.55
   3   4  -2   57.58    1.35
  -3  -4   2   57.15    1.47
   3   4  -1  113.99    2.70
   3   4  -1  123.01    2.21
  -3  -4   1  129.89    2.39
  -3  -4   1  109.63    2.39
   3   4   0    0.49    0.18
   3   4   0    0.80    0.06
  -3  -4   0    0.31    0.06
  -3  -4   0    0.49    0.12
   3   4   1    5.77    0.25
   3   4   1    5.46    0.37
  -3  -4  -1    4.67    0.25
  -3  -4  -1    5.22    0.25
   3   4   2  477.62   10.80
   3   4   2  478.11   10.74
  -3  -4  -2  481.85   10.80
  -3  -4  -2  464.18   10.56
   3   4   3  671.71   15.90
  -3  -4  -3  676.44   16.08
  -3  -4  -3  657.47   15.41
   3   4   4  258.05    5.71
  -3  -4  -4  259.04    5.77
  -3  -4  -4  286.66    5.89
   3   4   5    9.76    0.37
  -3  -4  -5    9.21    0.18
  -3  -4  -5    9.82    0.37
   3   4   6   68.56    1.66
  -3  -4  -6   73.66    1.72
  -3  -4  -6   70.34    1.29
   3   4   7   27.38    0.86
  -3  -4  -7   26.52    0.49
  -3  -4  -7   28.85    0.86
   3   4   8    4.54    0.43
  -3  -4  -8    6.08    0.12
   3   4   9    1.04    0.31
  -3  -4  -9    0.98    0.06
   3   4  10    0.98    0.37
   3   4  11    0.25    0.37
   3   5  -7    1.72    0.43
   3   5  -6    7.61    0.55
   3   5  -5    2.70    0.37
   3   5  -4    2.03    0.37
   3   5  -3   18.48    0.68
   3   5  -2   10.50    0.49
  -3  -5   2   10.56    0.43
   3   5  -1  239.27    4.48
   3   5  -1  198.82    4.79
   3   5  -1  240.13    4.48
  -3  -5   1  193.54    4.36
   3   5   0   40.27    0.74
   3   5   0   40.45    0.98
  -3  -5   0   40.33    0.92
   3   5   1   37.69    0.74
   3   5   1   39.22    0.92
  -3  -5  -1   38.98    0.98
  -3  -5  -1   39.04    0.80
   3   5   2  131.67    2.70
   3   5   2  136.70    2.88
  -3  -5  -2  133.51    2.76
  -3  -5  -2  140.93    2.88
   3   5   3   92.63    1.90
   3   5   3   89.86    2.03
  -3  -5  -3   90.54    1.96
  -3  -5  -3   93.73    1.96
   3   5   4   18.05    0.49
  -3  -5  -4   18.23    0.49
  -3  -5  -4   18.78    0.43
   3   5   5   37.14    0.92
  -3  -5  -5   39.47    0.98
  -3  -5  -5   39.04    0.74
   3   5   6    6.38    0.43
  -3  -5  -6    7.18    0.12
   3   5   7   59.36    1.53
   3   5   8    9.45    0.80
   3   5   9    1.66    0.37
   3   5  10    1.04    0.37
   3   5  11    0.68    0.37
   3   6  -6    2.39    0.49
   3   6  -5    2.58    0.43
   3   6  -4    1.41    0.37
   3   6  -3   42.72    1.23
   3   6  -2   20.13    0.74
   3   6  -1   57.09    1.47
   3   6   0   44.01    1.10
   3   6   0   43.40    0.86
   3   6   0   41.62    0.86
   3   6   1   27.56    0.55
   3   6   1   29.28    0.74
   3   6   2    0.00    0.06
   3   6   2    0.00    0.06
   3   6   3   16.51    0.43
   3   6   3   15.59    0.43
   3   6   4   19.46    0.55
   3   6   5   45.91    1.17
   3   6   6    5.83    0.37
   3   6   7   20.69    0.98
   3   6   8   11.54    0.55
   3   6   9    4.91    0.49
   3   6  10    1.60    0.43
   3   7  -5    4.48    0.55
   3   7  -4    0.00    0.25
   3   7  -3    0.12    0.43
   3   7  -2   28.54    1.23
   3   7  -1   94.22    2.58
   3   7   0   67.71    1.35
   3   7   0   70.04    1.72
   3   7   0   68.07    1.35
   3   7   1    7.67    0.25
   3   7   1    7.86    0.37
   3   7   1    7.12    0.25
   3   7   2   35.91    0.80
   3   7   2   36.22    0.92
   3   7   2   36.03    0.80
   3   7   3   59.85    1.35
   3   7   3   62.30    1.41
   3   7   4  223.43    4.85
   3   7   4  217.60    4.97
   3   7   5   33.02    0.98
   3   7   6  111.10    2.76
   3   7   7  209.62    5.22
   3   7   8   52.79    1.84
   3   7   9    0.06    0.25
   3   7  10    0.00    0.25
   3   8  -4   12.40    0.74
   3   8  -3    1.29    0.61
   3   8  -2    4.17    0.43
   3   8  -1    1.90    0.31
   3   8   0   15.04    0.37
   3   8   0   15.16    0.37
   3   8   0   16.08    0.80
   3   8   1    8.41    0.37
   3   8   1    7.67    0.25
   3   8   1    7.61    0.25
   3   8   2   12.46    0.43
   3   8   2   12.34    0.43
   3   8   2   12.52    0.49
   3   8   3    6.26    0.37
   3   8   3    6.38    0.25
   3   8   3    6.32    0.25
   3   8   4   19.46    0.55
   3   8   4   19.77    0.49
   3   8   4   18.66    0.68
   3   8   5    3.68    0.31
   3   8   5    4.05    0.18
   3   8   5    4.17    0.31
   3   8   6    3.38    0.31
   3   8   6    3.13    0.31
   3   8   7   12.52    0.61
   3   8   7   13.69    0.61
   3   8   8   20.93    0.86
   3   8   8   23.08    0.86
   3   8   9    2.33    0.43
   3   8   9    2.82    0.68
   3   9  -1   22.53    1.10
   3   9   0    1.90    0.49
   3   9   1    8.84    0.25
   3   9   1    9.33    0.49
   3   9   1    8.96    0.25
   3   9   2    4.11    0.18
   3   9   2    4.11    0.18
   3   9   2    4.42    0.31
   3   9   3    0.98    0.18
   3   9   3    0.92    0.18
   3   9   3    1.17    0.18
   3   9   4    3.44    0.25
   3   9   4    3.56    0.25
   3   9   4    3.38    0.18
   3   9   5   39.47    1.10
   3   9   5   40.39    0.92
   3   9   5   40.76    1.29
   3   9   6   25.35    0.86
   3   9   6   23.82    0.80
   3   9   7   24.37    0.86
   3   9   7   26.64    0.92
   3   9   8    2.58    0.43
   3   9   8    3.01    0.43
   3  10   2    0.31    0.12
   3  10   2    0.25    0.12
   3  10   3    1.53    0.31
   3  10   3    1.78    0.25
   3  10   3    1.41    0.18
   3  10   4   24.68    0.74
   3  10   4   26.33    0.74
   3  10   4   26.15    0.80
   3  10   5   68.75    1.78
   3  10   5   70.16    1.84
   3  10   6    8.53    0.49
   3  10   6    8.84    0.49
  -4   6   5    3.31    0.49
   4  -6  -4    6.69    0.55
  -4   6   4    6.26    0.80
   4  -6  -3    2.03    0.61
  -4   6   3    2.03    0.37
   4  -6  -2    0.55    0.31
  -4   6   2    0.68    0.31
   4  -6  -1    9.39    0.55
  -4   6   1    9.33    0.49
   4  -6   0    0.74    0.43
  -4   6   0    0.86    0.25
   4  -6   1    4.05    0.31
  -4   6  -1    3.56    0.37
   4  -6   2    4.54    0.49
  -4   6  -2    4.73    0.37
  -4   5   6    0.18    0.25
  -4   5   6    0.31    0.31
  -4   5   5   42.48    1.72
   4  -5  -4   22.71    0.92
  -4   5   4   21.12    0.86
   4  -5  -3    6.20    0.49
  -4   5   3    6.20    0.49
   4  -5  -2  100.54    2.64
  -4   5   2   95.39    2.76
   4  -5  -1   72.62    1.90
  -4   5   1   70.59    2.09
   4  -5   0   16.21    0.80
  -4   5   0   15.84    0.80
   4  -5   1    9.33    0.43
  -4   5  -1    9.15    0.43
   4  -5   2    1.04    0.25
  -4   5  -2    1.04    0.25
   4  -5   3    1.84    0.37
  -4   5  -3    1.90    0.25
   4  -5   4   11.05    0.43
  -4   5  -4   11.91    0.68
  -4   4   7   10.31    0.37
  -4   4   7   10.74    0.92
  -4   4   6   17.37    0.68
  -4   4   6   16.82    0.74
   4  -4  -5    1.23    0.31
  -4   4   5    0.00    0.18
  -4   4   5    1.41    0.31
   4  -4  -4   13.20    0.61
  -4   4   4   11.29    0.55
   4  -4  -3   19.40    0.74
  -4   4   3   19.34    0.74
   4  -4  -2   16.70    0.68
  -4   4   2   16.14    0.68
   4  -4  -1  223.56    5.34
  -4   4   1  229.39    5.59
   4  -4   0   23.69    0.74
  -4   4   0   24.43    0.80
   4  -4   1    0.18    0.31
  -4   4  -1    0.18    0.18
   4  -4   2    1.53    0.25
  -4   4  -2    1.72    0.25
   4  -4   3   23.02    0.68
  -4   4  -3   22.65    0.74
   4  -4   4    2.03    0.37
  -4   4  -4    1.96    0.25
   4  -4   5    0.06    0.18
  -4   4  -5    0.06    0.18
   4  -4   6    0.31    0.18
  -4   4  -6    0.25    0.18
  -4   3   8    0.18    0.12
  -4   3   8    0.12    0.25
  -4   3   7    7.00    0.31
  -4   3   7    7.00    0.49
  -4   3   6    9.64    0.37
  -4   3   6   10.13    0.80
   4  -3  -5    0.06    0.25
  -4   3   5    0.06    0.25
  -4   3   5    0.12    0.18
   4  -3  -4    0.18    0.25
  -4   3   4    0.49    0.25
   4  -3  -3   16.57    0.61
  -4   3   3   18.05    0.68
   4  -3  -2   64.21    1.78
  -4   3   2   62.67    1.60
   4  -3  -1  134.86    3.13
  -4   3   1  138.91    3.25
   4  -3   0   14.24    0.49
  -4   3   0   14.85    0.55
   4  -3   1    0.06    0.18
  -4   3  -1    0.06    0.31
   4  -3   2    2.33    0.25
  -4   3  -2    1.90    0.25
   4  -3   3    4.60    0.49
  -4   3  -3    3.87    0.31
   4  -3   4   35.60    0.92
  -4   3  -4   36.52    0.98
   4  -3   5    2.76    0.25
  -4   3  -5    2.88    0.31
   4  -3   6    6.87    0.37
  -4   3  -6    7.00    0.37
   4  -3   7    4.42    0.55
  -4   3  -7    4.17    0.55
  -4   2   8    0.12    0.12
  -4   2   8    0.06    0.25
  -4   2   7    1.72    0.18
  -4   2   7    1.78    0.31
  -4   2   6   17.37    0.68
  -4   2   6   17.00    0.55
   4  -2  -5   13.57    0.55
  -4   2   5   12.64    0.49
  -4   2   5   12.77    0.55
   4  -2  -4   42.66    1.35
  -4   2   4   43.70    1.10
  -4   2   4   42.66    1.17
   4  -2  -3   12.22    0.49
  -4   2   3   12.52    0.49
   4  -2  -2   23.51    0.68
  -4   2   2   24.49    0.74
   4  -2  -1   32.47    0.98
  -4   2   1   32.47    0.86
   4  -2   0    3.31    0.25
  -4   2   0    3.50    0.25
   4  -2   1   17.19    0.55
  -4   2  -1   17.62    0.55
   4  -2   2    0.61    0.18
  -4   2  -2    0.61    0.18
   4  -2   3    0.25    0.18
  -4   2  -3    0.25    0.18
   4  -2   4   42.66    1.10
  -4   2  -4   44.26    1.17
   4  -2   5   20.13    0.86
  -4   2  -5   20.38    0.68
   4  -2   6   19.52    0.61
  -4   2  -6   19.83    0.68
   4  -2   7    5.89    0.37
  -4   2  -7    6.38    0.37
   4  -2   8    8.84    0.74
  -4   2  -8    8.23    0.49
  -4   1   8    0.43    0.18
  -4   1   8    0.49    0.25
  -4   1   7    3.68    0.31
  -4   1   7    3.50    0.25
  -4   1   6    3.99    0.37
  -4   1   6    3.87    0.31
   4  -1  -5    1.04    0.25
  -4   1   5    0.92    0.31
  -4   1   5    1.35    0.25
   4  -1  -4   18.91    0.74
  -4   1   4   21.18    0.74
  -4   1   4   18.72    0.61
   4  -1  -3   93.18    2.09
  -4   1   3   86.67    2.03
  -4   1   3   96.68    2.21
   4  -1  -2  232.76    5.22
  -4   1   2  226.99    5.16
   4  -1  -1   44.63    1.04
  -4   1   1   46.22    1.10
   4  -1   0   55.55    1.23
  -4   1   0   56.84    1.41
   4  -1   1   68.56    1.66
  -4   1  -1   70.41    1.60
   4  -1   2   10.80    0.37
  -4   1  -2   10.93    0.43
   4  -1   3    6.26    0.31
  -4   1  -3    6.20    0.49
   4  -1   4    7.67    0.37
  -4   1  -4    7.55    0.37
   4  -1   5    0.25    0.18
  -4   1  -5    0.31    0.18
   4  -1   6    4.24    0.37
  -4   1  -6    4.36    0.49
   4  -1   7  127.49    3.13
  -4   1  -7  133.88    3.31
   4  -1   8   44.75    1.23
   4  -1   9    6.08    0.49
  -4   1  -9    6.81    0.43
  -4   0   8   34.07    1.04
  -4   0   8   32.16    1.17
  -4   0   8   33.76    1.04
  -4   0   7   13.32    0.68
  -4   0   7   12.58    0.61
  -4   0   6    3.99    0.31
  -4   0   6    4.48    0.49
   4   0  -5    0.80    0.18
  -4   0   5    0.12    0.18
  -4   0   5    0.18    0.18
   4   0  -4    0.74    0.25
  -4   0   4    0.61    0.18
  -4   0   4    0.68    0.31
   4   0  -3    0.37    0.12
  -4   0   3    0.43    0.12
  -4   0   3    0.49    0.18
   4   0  -2    2.03    0.18
  -4   0   2    1.66    0.31
   4   0  -1  108.28    2.27
  -4   0   1  109.14    2.33
   4   0   0    0.37    0.12
  -4   0   0    0.74    0.18
   4   0   1   14.12    0.37
  -4   0  -1   14.92    0.43
   4   0   2    7.98    0.31
  -4   0  -2    8.23    0.49
   4   0   3  131.17    3.01
  -4   0  -3  128.78    2.88
   4   0   4   61.81    1.53
  -4   0  -4   63.72    1.47
   4   0   5   37.01    0.98
  -4   0  -5   39.35    1.23
   4   0   6    2.33    0.31
  -4   0  -6    2.09    0.31
   4   0   7   53.16    1.41
  -4   0  -7   54.57    1.66
   4   0   8    9.02    0.49
  -4   0  -8    9.33    0.49
   4   0   9    6.75    0.49
  -4   0  -9    7.18    0.43
   4   0  10    0.06    0.25
  -4  -1   8    0.25    0.18
  -4  -1   8    0.00    0.18
  -4  -1   8    0.37    0.18
  -4  -1   7    7.12    0.55
  -4  -1   7    5.89    0.31
  -4  -1   6   23.20    0.74
  -4  -1   6   22.10    0.61
  -4  -1   5   11.66    0.55
  -4  -1   5   11.60    0.61
   4   1  -4    0.43    0.12
  -4  -1   4    0.25    0.18
  -4  -1   4    0.25    0.12
   4   1  -3    5.59    0.25
  -4  -1   3    5.77    0.31
  -4  -1   3    5.83    0.25
   4   1  -2   13.57    0.37
  -4  -1   2   14.30    0.55
  -4  -1   2   13.69    0.37
   4   1  -1   24.98    0.55
  -4  -1   1   26.03    0.68
  -4  -1   1   25.29    0.61
   4   1   0   18.05    0.49
  -4  -1   0   17.80    0.49
   4   1   1   27.93    0.68
  -4  -1  -1   28.97    0.74
   4   1   2   22.28    0.55
  -4  -1  -2   22.90    0.61
   4   1   3  102.45    2.21
  -4  -1  -3  103.06    2.27
   4   1   4  189.67    4.24
  -4  -1  -4  193.54    4.36
   4   1   5   23.63    0.68
  -4  -1  -5   24.37    0.92
   4   1   6   13.20    0.49
  -4  -1  -6   13.81    0.55
   4   1   7   22.40    0.86
  -4  -1  -7   23.14    0.86
   4   1   8   52.30    1.47
  -4  -1  -8   53.10    1.72
   4   1   9    3.07    0.37
  -4  -1  -9    3.31    0.37
   4   1  10    1.35    0.61
  -4  -1 -10    0.55    0.31
  -4  -2   8    0.25    0.12
  -4  -2   8    0.00    0.12
  -4  -2   7    0.31    0.31
  -4  -2   7    0.18    0.12
  -4  -2   7    0.00    0.12
   4   2  -6    7.12    0.49
  -4  -2   6    8.23    0.31
  -4  -2   6    9.58    0.49
  -4  -2   5    6.69    0.25
  -4  -2   5    7.12    0.37
   4   2  -4    0.00    0.06
  -4  -2   4    0.06    0.12
  -4  -2   4    0.06    0.12
   4   2  -3    0.49    0.12
  -4  -2   3    0.37    0.18
  -4  -2   3    0.49    0.18
   4   2  -2    1.10    0.12
  -4  -2   2    1.17    0.12
  -4  -2   2    1.10    0.18
   4   2  -1   18.97    0.43
  -4  -2   1   19.34    0.55
  -4  -2   1   18.91    0.43
  -4  -2   0    9.27    0.37
  -4  -2   0    6.63    0.31
   4   2   1   -0.18    0.12
  -4  -2  -1    1.04    0.18
   4   2   2  291.75    6.51
  -4  -2  -2  279.23    6.20
   4   2   3   73.72    1.60
  -4  -2  -3   75.44    1.66
   4   2   4  219.44    4.85
  -4  -2  -4  210.17    4.73
   4   2   5  348.35    8.29
  -4  -2  -5  333.00    7.80
   4   2   6   98.21    2.33
  -4  -2  -6  101.47    2.46
   4   2   7   20.13    0.74
  -4  -2  -7   20.93    0.80
   4   2   8   63.22    1.72
  -4  -2  -8   65.07    1.78
   4   2   9   15.78    0.74
  -4  -2  -9   15.96    0.74
   4   2  10   10.50    0.68
  -4  -2 -10    9.58    0.55
   4   3  -8    0.43    0.31
   4   3  -7   16.57    1.04
   4   3  -6    3.81    0.43
  -4  -3   6    3.99    0.18
  -4  -3   6    3.62    0.25
  -4  -3   6    4.48    0.55
   4   3  -5   13.07    0.61
  -4  -3   5   13.69    0.74
  -4  -3   5   12.71    0.31
   4   3  -4    7.49    0.43
  -4  -3   4    7.00    0.18
  -4  -3   4    7.43    0.37
   4   3  -3    5.22    0.18
   4   3  -3    5.40    0.55
  -4  -3   3    5.22    0.18
  -4  -3   3    5.22    0.31
   4   3  -2    5.46    0.31
   4   3  -2    5.09    0.18
  -4  -3   2    5.22    0.31
  -4  -3   2    5.34    0.25
   4   3  -1  373.45    8.16
  -4  -3   1  381.92    8.41
  -4  -3   1  351.29    8.04
   4   3   0 1230.85   31.00
  -4  -3   0 1201.63   30.81
  -4  -3   0 1190.40   30.63
   4   3   1   18.05    0.49
  -4  -3  -1   18.35    0.92
  -4  -3  -1   16.88    0.55
   4   3   2   51.38    1.23
  -4  -3  -2   50.27    1.23
  -4  -3  -2   46.22    1.41
   4   3   3   59.60    1.47
  -4  -3  -3   58.44    1.35
   4   3   4   31.43    0.92
  -4  -3  -4   31.37    0.80
   4   3   5   42.05    1.04
  -4  -3  -5   43.70    1.10
   4   3   6   22.22    0.74
  -4  -3  -6   22.90    0.74
   4   3   7  112.39    3.01
  -4  -3  -7  116.14    2.88
   4   3   8   12.89    0.98
  -4  -3  -8   15.22    0.68
   4   3   9   20.99    0.86
  -4  -3  -9   21.73    0.86
   4   3  10    8.96    0.61
  -4  -3 -10    8.53    0.31
  -4  -3 -10    9.45    0.61
   4   3  11    0.25    0.37
   4   4  -7    4.24    0.80
   4   4  -6    0.37    0.31
   4   4  -5    0.31    0.25
  -4  -4   5    0.25    0.25
  -4  -4   5    0.37    0.06
  -4  -4   5    0.31    0.06
   4   4  -4    4.05    0.43
  -4  -4   4    3.81    0.31
  -4  -4   4    3.87    0.12
  -4  -4   4    3.99    0.12
   4   4  -3    6.20    0.37
  -4  -4   3    5.89    0.12
  -4  -4   3    6.20    0.37
   4   4  -2    1.04    0.25
   4   4  -2    1.23    0.06
  -4  -4   2    1.23    0.06
  -4  -4   2    1.23    0.25
   4   4  -1  110.92    2.52
   4   4  -1  109.14    2.09
  -4  -4   1  110.92    2.21
  -4  -4   1  107.67    2.39
   4   4   0  309.92    6.57
   4   4   0  284.82    6.57
  -4  -4   0  312.13    6.69
  -4  -4   0  299.42    6.94
   4   4   1  149.16    3.07
  -4  -4  -1  133.75    2.88
  -4  -4  -1  149.28    3.07
   4   4   2   73.17    1.53
  -4  -4  -2   69.55    1.47
  -4  -4  -2   72.74    1.53
   4   4   3    3.74    0.25
  -4  -4  -3    3.25    0.18
  -4  -4  -3    3.81    0.25
   4   4   4    1.23    0.18
  -4  -4  -4    1.29    0.18
   4   4   5   50.82    1.23
  -4  -4  -5   51.01    1.04
  -4  -4  -5   52.36    1.41
   4   4   6    1.84    0.31
  -4  -4  -6    2.52    0.31
   4   4   7    0.43    0.25
  -4  -4  -7    0.37    0.25
   4   4   8   -0.06    0.25
  -4  -4  -8    0.18    0.25
   4   4   9    6.81    0.74
  -4  -4  -9    6.75    0.49
   4   4  10    7.61    0.55
  -4  -4 -10    2.95    0.49
   4   4  11    4.24    0.55
   4   5  -7    0.06    0.31
   4   5  -6    3.87    0.49
   4   5  -5   12.46    0.92
   4   5  -4    0.12    0.25
  -4  -5   4    0.06    0.18
   4   5  -3   21.30    0.80
  -4  -5   3   21.79    0.74
   4   5  -2   17.62    0.25
   4   5  -2   18.97    0.86
  -4  -5   2   18.17    0.80
  -4  -5   2   17.06    0.31
   4   5  -1  161.13    3.07
   4   5  -1  148.30    3.50
  -4  -5   1  161.07    3.13
  -4  -5   1  146.03    3.38
   4   5   0  179.85    4.30
   4   5   0  192.43    3.87
  -4  -5   0  173.96    3.93
  -4  -5   0  194.77    4.05
   4   5   1   15.35    0.61
   4   5   1   15.28    0.37
  -4  -5  -1   15.04    0.43
  -4  -5  -1   15.53    0.49
   4   5   2   80.78    1.72
  -4  -5  -2   80.17    1.72
  -4  -5  -2   80.23    1.72
   4   5   3   19.83    0.55
  -4  -5  -3   19.89    0.55
  -4  -5  -3   19.95    0.55
   4   5   4    7.98    0.37
  -4  -5  -4    7.55    0.25
  -4  -5  -4    7.86    0.37
   4   5   5   65.31    2.03
  -4  -5  -5   75.44    1.78
  -4  -5  -5   71.70    1.47
   4   5   6    1.72    0.25
  -4  -5  -6    1.90    0.25
  -4  -5  -6    1.66    0.18
   4   5   7   -0.12    0.18
  -4  -5  -7    0.06    0.18
  -4  -5  -7    0.06    0.06
   4   5   8   19.34    0.74
  -4  -5  -8   20.62    0.80
  -4  -5  -8   18.60    0.37
   4   5   9   14.24    1.04
   4   5  10   13.07    0.74
   4   5  11    0.74    0.43
   4   6  -6    3.68    0.55
   4   6  -5   25.35    1.04
   4   6  -4    5.89    0.49
   4   6  -3    9.82    0.55
   4   6  -2   30.02    0.98
  -4  -6   2   29.95    0.92
   4   6  -1   60.58    1.53
   4   6  -1   58.07    0.98
   4   6  -1   58.80    1.04
  -4  -6   1   61.26    1.72
   4   6   0    0.86    0.37
   4   6   0    0.80    0.06
  -4  -6   0    0.80    0.25
   4   6   1   85.69    1.78
   4   6   1   85.69    2.03
  -4  -6  -1   86.73    1.78
  -4  -6  -1   84.09    1.90
   4   6   2    3.68    0.18
   4   6   2    3.87    0.25
  -4  -6  -2    4.17    0.31
  -4  -6  -2    3.81    0.25
   4   6   3  109.69    2.46
  -4  -6  -3  113.62    2.64
  -4  -6  -3  114.11    2.58
   4   6   4   74.89    1.78
  -4  -6  -4   77.59    1.96
  -4  -6  -4   80.47    1.72
   4   6   5   32.41    0.86
  -4  -6  -5   32.96    0.92
  -4  -6  -5   33.45    0.74
   4   6   6    0.12    0.31
  -4  -6  -6    0.00    0.18
  -4  -6  -6    0.00    0.06
   4   6   7   21.61    0.98
  -4  -6  -7   21.42    0.37
   4   6   8    0.25    0.31
   4   6   9    6.87    0.55
   4   6  10   59.36    1.90
   4   7  -5    0.55    0.37
   4   7  -4    6.20    0.86
   4   7  -3   23.51    0.92
   4   7  -2   45.98    1.35
   4   7  -1   46.96    1.60
   4   7   0   60.95    1.60
   4   7   0   57.02    1.10
   4   7   0   57.21    1.10
   4   7   1  116.20    2.39
   4   7   1  118.28    2.76
  -4  -7  -1  116.26    2.70
   4   7   2  382.41    8.65
   4   7   2  359.70    8.65
  -4  -7  -2  389.72    9.15
   4   7   3   28.73    0.74
   4   7   3   30.14    0.98
  -4  -7  -3   30.45    0.80
   4   7   4  266.22    6.45
  -4  -7  -4  288.68    6.45
   4   7   5  347.00    8.35
   4   7   6   25.60    0.80
   4   7   7    0.06    0.25
   4   7   8    8.84    0.55
   4   7   9    0.55    0.31
   4   7  10    2.15    0.74
   4   8  -4    1.10    0.43
   4   8  -3    3.07    0.49
   4   8  -2    3.13    0.43
   4   8  -1   15.35    0.68
   4   8   0   13.32    0.25
   4   8   0   14.36    0.80
   4   8   0   13.07    0.25
   4   8   1    0.18    0.06
   4   8   1    0.31    0.18
   4   8   1    0.18    0.06
   4   8   2    6.20    0.25
   4   8   2    6.63    0.49
   4   8   2    6.45    0.25
   4   8   3   12.95    0.43
   4   8   3   12.95    0.55
   4   8   4    1.29    0.18
   4   8   4    0.98    0.18
   4   8   5   31.80    0.92
   4   8   6    9.88    0.68
   4   8   7    0.86    0.43
   4   8   8    6.63    0.49
   4   8   9   11.29    0.68
   4   9  -2    0.18    0.31
   4   9  -1    0.74    0.31
   4   9   0    0.31    0.25
   4   9   1    0.12    0.06
   4   9   1    0.12    0.06
   4   9   1    0.25    0.31
   4   9   2    0.06    0.12
   4   9   2    0.12    0.12
   4   9   2    0.18    0.18
   4   9   3   40.64    1.10
   4   9   3   39.71    0.98
   4   9   3   43.09    1.10
   4   9   4   51.93    1.47
   4   9   4   53.59    1.29
   4   9   4   53.40    1.35
   4   9   5   45.24    1.23
   4   9   5   50.64    1.47
   4   9   6    1.47    0.25
   4   9   6    1.35    0.31
   4   9   7    0.06    0.25
   4   9   8    1.41    0.55
   4  10   0    1.47    0.37
   4  10   1    0.43    0.43
   4  10   2   28.17    0.92
   4  10   3   93.92    2.21
   4  10   3   92.57    2.27
   4  10   3   99.13    2.46
   4  10   4   23.14    0.68
   4  10   4   21.98    0.68
   4  10   4   22.90    0.74
   4  10   5    0.00    0.25
   4  10   5    0.74    0.12
   4  10   5    0.55    0.37
   4  10   6    6.02    0.37
   4  10   6    7.12    0.61
   4  10   7    1.60    0.31
   4  10   7    1.84    0.37
   5  -5  -4   36.40    1.29
  -5   5   4   32.10    1.17
   5  -5  -3   17.86    0.80
  -5   5   3   16.76    0.80
   5  -5  -2    4.48    0.43
  -5   5   2    4.54    0.43
   5  -5  -1   13.20    0.61
  -5   5   1   13.26    0.86
   5  -5   0    0.12    0.37
  -5   5   0    0.06    0.37
   5  -5   1    1.41    0.31
  -5   5  -1    1.47    0.49
   5  -5   2    3.38    0.37
  -5   5  -2    3.81    0.37
   5  -5   3   11.79    0.55
  -5   5  -3   11.42    0.55
  -5   4   6    2.46    0.25
  -5   4   6    2.39    0.43
   5  -4  -5    0.43    0.37
  -5   4   5    0.37    0.25
  -5   4   5    0.49    0.55
   5  -4  -4    8.04    0.55
  -5   4   4    7.61    0.55
   5  -4  -3   47.88    1.47
  -5   4   3   48.00    1.78
   5  -4  -2    6.02    0.49
  -5   4   2    6.63    0.49
   5  -4  -1   10.31    0.49
  -5   4   1    9.82    0.55
   5  -4   0    7.80    0.68
  -5   4   0    7.00    0.43
   5  -4   1    6.32    0.43
  -5   4  -1    5.89    0.43
   5  -4   2    0.61    0.25
  -5   4  -2    0.43    0.43
   5  -4   3    0.00    0.31
  -5   4  -3   -0.06    0.18
   5  -4   4    4.17    0.37
  -5   4  -4    4.30    0.37
   5  -4   5    2.09    0.49
  -5   4  -5    2.15    0.31
  -5   3   7    0.74    0.31
  -5   3   7    0.92    0.31
  -5   3   6    0.12    0.25
  -5   3   6    0.25    0.25
   5  -3  -5   11.91    0.61
  -5   3   5   11.23    0.61
  -5   3   5   11.66    0.49
   5  -3  -4   21.73    0.80
  -5   3   4   20.62    0.80
   5  -3  -3   20.56    0.98
  -5   3   3   18.97    0.74
   5  -3  -2    1.96    0.49
  -5   3   2    2.15    0.31
   5  -3  -1    8.47    0.61
  -5   3   1    8.47    0.49
   5  -3   0    4.79    0.55
  -5   3   0    4.48    0.37
   5  -3   1    1.29    0.25
  -5   3  -1    1.23    0.25
   5  -3   2    7.00    0.37
   5  -3   3    6.26    0.37
  -5   3  -3    6.14    0.43
   5  -3   4    0.00    0.31
  -5   3  -4   -0.06    0.18
   5  -3   5    6.69    0.37
  -5   3  -5    7.12    0.43
   5  -3   6    0.00    0.18
  -5   3  -6    0.00    0.18
  -5   2   7    0.06    0.25
  -5   2   7    0.25    0.25
  -5   2   6   16.33    0.68
  -5   2   6   15.90    0.74
   5  -2  -5   20.87    1.04
  -5   2   5   18.66    0.68
  -5   2   5   17.68    0.74
   5  -2  -4   10.56    0.49
  -5   2   4   11.17    0.49
  -5   2   4   10.68    0.49
   5  -2  -3    0.31    0.25
  -5   2   3    0.12    0.25
   5  -2  -2   -0.06    0.18
  -5   2   2   -0.18    0.25
   5  -2  -1    3.44    0.31
  -5   2   1    3.50    0.37
   5  -2   0   12.22    0.74
  -5   2   0   12.89    0.55
   5  -2   1   13.44    0.74
  -5   2  -1   10.19    0.49
   5  -2   2    1.41    0.43
  -5   2  -2    1.47    0.31
   5  -2   3   16.82    0.61
  -5   2  -3   17.25    0.68
   5  -2   4   74.64    1.84
  -5   2  -4   75.75    2.21
   5  -2   5   18.60    0.86
  -5   2  -5   19.40    0.74
   5  -2   6    0.80    0.25
  -5   2  -6    0.00    0.43
   5  -2   7    0.00    0.18
  -5   2  -7    0.00    0.18
  -5   1   7    4.36    0.49
  -5   1   7    4.48    0.37
  -5   1   6   11.29    0.43
  -5   1   6   10.62    0.55
   5  -1  -5   62.86    1.96
  -5   1   5   59.97    1.60
  -5   1   5   58.62    1.60
   5  -1  -4   68.50    1.78
  -5   1   4   70.59    1.78
  -5   1   4   66.42    1.72
   5  -1  -3    1.04    0.25
  -5   1   3    2.70    0.43
  -5   1   3    1.41    0.31
   5  -1  -2   39.96    1.04
  -5   1   2   40.27    1.04
   5  -1  -1    0.12    0.18
  -5   1   1    0.06    0.18
   5  -1   0   45.12    1.29
  -5   1   0   43.64    1.10
   5  -1   1    0.37    0.18
  -5   1  -1    0.31    0.25
   5  -1   2   14.36    0.49
  -5   1  -2   14.18    0.55
   5  -1   3    4.11    0.31
  -5   1  -3    4.17    0.37
  -5   1  -4   47.51    1.35
   5  -1   5  235.59    5.71
  -5   1  -5  233.50    5.77
   5  -1   6   33.51    1.23
  -5   1  -6   31.80    0.98
   5  -1   7    1.35    0.31
  -5   1  -7    1.60    0.31
   5  -1   8   -0.06    0.25
  -5   1  -8    0.00    0.37
  -5   0   8   -0.06    0.18
  -5   0   8   -0.06    0.18
  -5   0   7    6.69    0.55
  -5   0   7    5.52    0.37
  -5   0   6    0.18    0.18
  -5   0   6    0.06    0.18
   5   0  -5   17.31    0.80
  -5   0   5   14.79    0.55
  -5   0   5   15.16    0.55
   5   0  -4    4.79    0.31
  -5   0   4    3.99    0.31
  -5   0   4    4.42    0.31
   5   0  -3    8.41    0.37
  -5   0   3    8.53    0.37
  -5   0   3    8.47    0.43
   5   0  -2   13.20    0.43
  -5   0   2   12.83    0.49
   5   0  -1    8.16    0.37
  -5   0   1   11.48    0.49
   5   0   0   44.20    1.23
  -5   0   0   45.05    1.17
   5   0   1   30.81    0.80
  -5   0  -1   30.63    0.86
   5   0   2   -0.49    0.25
   5   0   3   21.48    0.68
  -5   0  -3   19.95    0.74
   5   0   4   95.27    2.27
  -5   0  -4   94.35    2.27
   5   0   5  146.28    3.50
  -5   0  -5  146.58    3.62
   5   0   6    1.17    0.31
  -5   0  -6    1.41    0.31
   5   0   7   -0.06    0.37
  -5   0  -7    0.00    0.37
   5   0   8   -0.06    0.25
  -5   0  -8    0.00    0.18
   5   0   9    0.06    0.25
  -5   0  -9    0.12    0.25
  -5  -1   8    2.58    0.31
  -5  -1   8    2.70    0.31
  -5  -1   8    2.52    0.25
  -5  -1   7    0.00    0.12
  -5  -1   7   -0.06    0.25
  -5  -1   6    0.12    0.18
  -5  -1   6    0.00    0.12
   5   1  -5   13.63    0.49
  -5  -1   5   12.95    0.43
  -5  -1   5   13.07    0.55
   5   1  -4    0.00    0.12
  -5  -1   4    0.31    0.18
  -5  -1   4    0.31    0.18
   5   1  -3    0.25    0.12
  -5  -1   3    0.06    0.31
  -5  -1   3    0.18    0.25
  -5  -1   2    2.64    0.31
  -5  -1   2    4.73    0.37
   5   1  -1   48.86    1.10
  -5  -1   1   49.60    1.23
  -5  -1   1   48.49    1.29
   5   1   0  102.69    2.39
  -5  -1   0  103.80    2.33
   5   1   1   39.41    0.92
  -5  -1  -1   41.07    0.98
   5   1   2   37.57    0.92
  -5  -1  -2   38.79    0.98
   5   1   3    5.16    0.49
  -5  -1  -3    4.60    0.37
   5   1   4    2.70    0.55
  -5  -1  -4    2.27    0.43
   5   1   5   97.29    2.33
  -5  -1  -5   97.72    2.64
   5   1   6   45.42    1.35
  -5  -1  -6   45.79    1.41
   5   1   7    0.86    0.31
  -5  -1  -7    1.10    0.31
   5   1   8    1.53    0.31
  -5  -1  -8    0.86    0.31
   5   1   9    5.52    0.55
  -5  -1  -9    5.09    0.74
  -5  -2   7    0.55    0.43
  -5  -2   7    1.47    0.18
  -5  -2   7    1.23    0.18
  -5  -2   6    0.06    0.12
  -5  -2   6    0.12    0.18
  -5  -2   5   10.50    0.49
  -5  -2   5   10.19    0.37
   5   2  -4   14.30    0.55
  -5  -2   4   13.44    0.55
  -5  -2   4   14.55    0.49
   5   2  -3    0.06    0.12
  -5  -2   3    0.12    0.18
  -5  -2   3    0.12    0.18
   5   2  -2    8.29    0.31
  -5  -2   2    8.59    0.43
  -5  -2   2    8.72    0.49
   5   2  -1    3.38    0.18
  -5  -2   1    3.99    0.25
  -5  -2   1    3.19    0.31
   5   2   0  259.22    5.71
  -5  -2   0  250.81    5.65
  -5  -2   0  265.11    6.08
   5   2   1   19.77    0.55
  -5  -2  -1   20.13    0.55
   5   2   2   55.92    1.29
  -5  -2  -2   58.25    1.53
   5   2   3  354.18    8.16
  -5  -2  -3  337.79    7.98
   5   2   4  429.37   10.13
  -5  -2  -4  402.61    9.70
   5   2   5    0.55    0.43
  -5  -2  -5    0.74    0.43
   5   2   6  221.78    5.34
  -5  -2  -6  225.58    5.46
   5   2   7   74.09    1.96
  -5  -2  -7   77.59    2.09
   5   2   8   17.31    0.98
  -5  -2  -8   17.99    0.74
   5   2   9   22.83    1.23
  -5  -2  -9   22.28    0.92
   5   2  10   39.78    1.41
  -5  -2 -10   42.72    1.41
  -5  -3   7    0.25    0.43
  -5  -3   6    0.55    0.12
  -5  -3   6    0.18    0.43
  -5  -3   6    0.00    0.12
  -5  -3   5    1.04    0.12
  -5  -3   5    1.35    0.31
   5   3  -4   10.01    0.37
  -5  -3   4    9.94    0.43
  -5  -3   4   10.19    0.49
   5   3  -3   58.25    1.23
  -5  -3   3   59.66    1.53
  -5  -3   3   60.46    1.41
   5   3  -2  132.83    2.82
  -5  -3   2  137.01    3.13
  -5  -3   2  132.89    3.13
   5   3  -1   31.43    0.74
  -5  -3   1   32.10    0.86
  -5  -3   1   31.61    0.86
   5   3   0    7.00    0.25
  -5  -3   0    7.12    0.37
  -5  -3   0    7.12    0.31
   5   3   1   21.73    0.55
  -5  -3  -1   21.98    0.61
  -5  -3  -1   21.30    0.61
   5   3   2    1.10    0.18
  -5  -3  -2    1.35    0.18
  -5  -3  -2    1.29    0.18
   5   3   3   12.71    0.43
  -5  -3  -3   13.01    0.49
   5   3   4  104.66    2.39
  -5  -3  -4  107.48    2.70
   5   3   5  309.31    7.30
  -5  -3  -5  297.28    7.06
   5   3   6    2.46    0.37
  -5  -3  -6    2.52    0.37
   5   3   7   98.70    2.52
  -5  -3  -7  100.42    2.58
   5   3   8   13.07    0.68
  -5  -3  -8   13.69    0.68
   5   3   9   22.83    0.92
  -5  -3  -9   23.76    0.92
   5   3  10   27.19    1.53
  -5  -3 -10   27.13    1.04
   5   4  -7    2.21    0.43
   5   4  -6    0.18    0.31
  -5  -4   6    0.06    0.43
   5   4  -5   17.56    0.80
  -5  -4   5   18.35    0.98
  -5  -4   5   16.76    0.37
  -5  -4   5   16.02    0.37
   5   4  -4    9.88    0.55
  -5  -4   4   11.05    0.74
  -5  -4   4    9.64    0.31
   5   4  -3   20.69    0.49
   5   4  -3   21.79    0.86
  -5  -4   3   22.53    0.98
  -5  -4   3   22.59    0.61
   5   4  -2   16.02    0.37
  -5  -4   2   16.88    0.43
  -5  -4   2   16.63    0.80
   5   4  -1   68.50    1.41
  -5  -4   1   69.73    1.66
  -5  -4   1   72.43    1.53
   5   4   0  120.56    2.52
  -5  -4   0  126.88    2.70
  -5  -4   0  121.23    2.76
   5   4   1   12.22    0.37
  -5  -4  -1   12.52    0.37
  -5  -4  -1   12.15    0.43
   5   4   2   18.78    0.49
  -5  -4  -2   18.23    0.55
  -5  -4  -2   18.72    0.55
   5   4   3   28.73    0.86
  -5  -4  -3   28.60    0.74
  -5  -4  -3   27.68    0.68
   5   4   4    9.08    0.55
  -5  -4  -4    8.96    0.37
  -5  -4  -4    8.65    0.43
   5   4   5    8.72    0.43
  -5  -4  -5    8.53    0.43
   5   4   6   16.27    0.86
  -5  -4  -6   16.51    0.68
   5   4   7    1.04    0.37
  -5  -4  -7    1.90    0.37
   5   4   8   15.10    0.68
  -5  -4  -8   16.02    0.98
   5   4   9   34.74    1.23
  -5  -4  -9   37.01    1.60
   5   4  10   28.54    1.17
  -5  -4 -10   30.02    1.17
   5   5  -6    0.49    0.37
   5   5  -5   16.70    0.80
  -5  -5   5   17.49    0.74
   5   5  -4   16.94    0.74
  -5  -5   4   18.41    0.74
   5   5  -3   36.28    1.17
  -5  -5   3   34.44    0.68
  -5  -5   3   38.92    1.17
   5   5  -2   21.42    0.49
   5   5  -2   23.02    1.10
  -5  -5   2   21.30    0.55
  -5  -5   2   23.20    0.80
   5   5  -1   14.42    0.31
   5   5  -1   14.92    0.61
  -5  -5   1   14.42    0.37
  -5  -5   1   14.73    0.55
   5   5   0    0.00    0.18
  -5  -5   0    0.31    0.18
  -5  -5   0    0.37    0.12
   5   5   1    3.25    0.18
  -5  -5  -1    3.68    0.31
  -5  -5  -1    5.16    0.25
   5   5   2    2.09    0.18
  -5  -5  -2    2.33    0.37
  -5  -5  -2    1.35    0.25
   5   5   3   12.03    0.61
  -5  -5  -3   13.32    0.61
  -5  -5  -3   14.00    0.49
   5   5   4    0.31    0.31
  -5  -5  -4   -0.12    0.12
  -5  -5  -4   -0.12    0.18
   5   5   5   14.12    0.55
  -5  -5  -5   14.00    0.43
  -5  -5  -5   14.55    0.74
   5   5   6   21.12    0.98
  -5  -5  -6   20.13    0.55
  -5  -5  -6   20.99    0.80
   5   5   7    8.59    0.49
  -5  -5  -7    8.10    0.49
  -5  -5  -7    7.55    0.25
   5   5   8   33.15    1.10
  -5  -5  -8   34.50    1.41
  -5  -5  -8   33.02    0.86
   5   5   9   12.46    0.74
  -5  -5  -9   13.20    0.74
  -5  -5  -9   12.34    0.37
   5   5  10   14.18    1.23
  -5  -5 -10   15.16    0.80
   5   6  -5   18.54    1.29
   5   6  -4   33.58    1.60
  -5  -6   4   33.51    1.17
   5   6  -3   10.99    0.92
  -5  -6   3   10.01    0.55
   5   6  -2   15.53    0.74
  -5  -6   2   16.02    0.68
   5   6  -1   55.80    1.10
   5   6  -1   58.19    1.60
  -5  -6   1   59.66    1.17
  -5  -6   1   59.91    1.60
   5   6   0   49.29    0.98
   5   6   0   53.34    1.66
  -5  -6   0   50.82    1.04
  -5  -6   0   50.76    1.35
   5   6   1  128.35    3.01
   5   6   1  128.23    2.70
  -5  -6  -1  127.49    3.13
  -5  -6  -1  127.74    2.76
   5   6   2   37.63    0.86
  -5  -6  -2   37.93    0.98
  -5  -6  -2   37.93    0.92
   5   6   3    6.45    0.43
  -5  -6  -3    6.63    0.31
  -5  -6  -3    6.69    0.31
   5   6   4    2.21    0.25
  -5  -6  -4    2.15    0.18
  -5  -6  -4    2.15    0.25
   5   6   5    4.60    0.37
  -5  -6  -5    4.67    0.25
  -5  -6  -5    4.73    0.37
   5   6   6    3.38    0.37
  -5  -6  -6    4.05    0.18
  -5  -6  -6    4.24    0.55
   5   6   7    1.10    0.55
  -5  -6  -7    1.04    0.12
  -5  -6  -7    1.23    0.31
   5   6   8  113.68    2.95
  -5  -6  -8  111.90    2.33
  -5  -6  -8  118.96    3.07
   5   6   9   48.86    1.90
  -5  -6  -9   49.54    1.60
   5   6  10    5.89    0.61
   5   7  -4   40.45    1.47
   5   7  -3   26.21    1.04
   5   7  -2    7.61    0.55
  -5  -7   2    7.92    0.55
   5   7  -1   70.77    1.96
  -5  -7   1   71.57    2.15
   5   7   0  112.94    2.27
   5   7   0  117.24    2.95
  -5  -7   0  115.52    2.88
   5   7   1    8.78    0.49
   5   7   1    8.78    0.37
  -5  -7  -1    9.02    0.31
  -5  -7  -1    9.02    0.68
   5   7   2  142.78    3.13
   5   7   2  140.81    3.38
  -5  -7  -2  142.16    3.13
  -5  -7  -2  143.64    3.38
   5   7   3  190.78    4.36
  -5  -7  -3  196.61    4.67
  -5  -7  -3  193.66    4.42
   5   7   4   28.42    0.86
  -5  -7  -4   27.99    0.98
  -5  -7  -4   27.87    0.86
   5   7   5   17.99    0.61
  -5  -7  -5   18.48    0.61
  -5  -7  -5   17.92    0.49
   5   7   6   24.55    0.80
  -5  -7  -6   25.29    0.86
  -5  -7  -6   24.86    0.68
   5   7   7    0.06    0.25
  -5  -7  -7    0.18    0.25
  -5  -7  -7    0.06    0.06
   5   7   8    3.50    0.43
   5   7   9    9.15    0.68
   5   7  10    2.46    0.49
   5   8  -3    4.73    0.55
   5   8  -2    0.12    0.31
   5   8  -1    0.06    0.25
   5   8   0   17.74    0.37
   5   8   0   17.37    0.37
   5   8   0   18.54    0.74
   5   8   1   22.96    0.80
   5   8   1   22.40    0.49
  -5  -8  -1   23.02    0.74
   5   8   2    0.06    0.25
   5   8   2    0.00    0.12
  -5  -8  -2    0.18    0.18
   5   8   3   14.55    0.55
   5   8   3   14.30    0.49
  -5  -8  -3   14.49    0.49
   5   8   4   10.99    0.55
  -5  -8  -4   11.05    0.37
   5   8   5   11.97    0.49
  -5  -8  -5   11.91    0.37
   5   8   6   11.72    0.74
   5   8   7   11.60    0.55
   5   8   8    5.89    0.49
   5   8   9    0.86    0.37
   5   9  -2    2.64    0.74
   5   9  -1    0.49    0.55
   5   9   0    5.09    0.43
   5   9   1   36.34    1.10
   5   9   2   25.60    0.80
   5   9   2   24.55    0.61
   5   9   2   23.45    0.68
   5   9   3   26.58    0.80
   5   9   3   26.03    0.68
   5   9   4    4.79    0.31
   5   9   5    7.37    0.55
   5   9   6    6.20    0.37
   5   9   7   -0.06    0.25
   5   9   8    3.25    0.43
   5  10   0   40.70    1.41
   5  10   1   98.09    2.70
   5  10   2   17.68    0.92
   5  10   3    3.93    0.37
   5  10   3    4.48    0.37
   5  10   3    4.30    0.25
   5  10   4    6.08    0.43
   5  10   4    6.94    0.37
   5  10   4    6.87    0.37
   5  10   5    0.18    0.25
   5  10   5    0.00    0.18
   5  10   6    8.04    0.43
   5  10   6    9.70    0.49
   5  10   7   -0.06    0.25
   6  -4  -3    5.16    0.49
  -6   4   3    4.54    0.49
   6  -4  -2   -0.06    0.25
  -6   4   2    0.12    0.25
   6  -4  -1    1.66    0.61
  -6   4   1    1.84    0.37
   6  -4   0    2.15    0.37
  -6   4   0    2.03    0.37
   6  -4   1    1.29    0.31
  -6   4  -1    1.10    0.37
   6  -4   2    0.25    0.43
  -6   4  -2    0.25    0.25
   6  -3  -5    9.64    0.61
  -6   3   5    9.33    0.55
  -6   3   5    9.15    0.92
   6  -3  -4    6.94    0.80
  -6   3   4    6.63    0.49
  -6   3   4    6.57    0.55
   6  -3  -3    2.27    0.37
  -6   3   3    2.15    0.61
   6  -3  -2    0.18    0.25
  -6   3   2    0.06    0.25
   6  -3  -1    0.92    0.31
  -6   3   1    0.80    0.31
   6  -3   0   19.46    0.74
  -6   3   0   18.41    0.74
   6  -3   1    0.43    0.25
  -6   3  -1    0.37    0.25
   6  -3   2    1.96    0.31
  -6   3  -2    1.72    0.37
   6  -3   3    0.12    0.25
  -6   3  -3    0.06    0.25
   6  -3   4    0.00    0.25
  -6   3  -4    0.92    0.49
  -6   2   6    0.43    0.31
  -6   2   6    0.12    0.25
   6  -2  -5    1.17    0.31
  -6   2   5    1.35    0.31
  -6   2   5    1.10    0.55
   6  -2  -4    6.69    0.49
  -6   2   4    7.12    0.49
  -6   2   4    6.63    0.49
   6  -2  -3    3.31    0.37
  -6   2   3    3.13    0.61
   6  -2  -2    1.53    0.31
  -6   2   2    1.47    0.31
   6  -2  -1   15.41    0.61
  -6   2   1   14.42    0.68
   6  -2   0    9.58    0.49
  -6   2   0    9.45    0.55
   6  -2   1   32.16    0.98
  -6   2  -1   30.75    0.98
   6  -2   2   37.69    1.10
  -6   2  -2   35.91    1.10
   6  -2   3    1.96    0.49
  -6   2  -3    2.21    0.37
   6  -2   4    2.76    0.37
  -6   2  -4    2.70    0.61
   6  -2   5   13.14    0.61
  -6   2  -5   13.69    0.68
   6  -2   6    1.84    0.37
  -6   2  -6    2.15    0.43
  -6   1   6    5.89    0.68
  -6   1   6    5.16    0.37
   6  -1  -5    1.90    0.31
  -6   1   5    1.78    0.31
  -6   1   5    1.84    0.31
   6  -1  -4    0.18    0.25
  -6   1   4    0.25    0.25
  -6   1   4    0.18    0.25
   6  -1  -3    1.60    0.25
  -6   1   3    1.41    0.31
  -6   1   3    1.60    0.31
   6  -1  -2    0.18    0.37
  -6   1   2    0.25    0.25
   6  -1  -1    1.47    0.25
  -6   1   1    1.41    0.31
   6  -1   0    0.00    0.18
  -6   1   0   -0.06    0.18
   6  -1   1    0.98    0.25
  -6   1  -1    1.29    0.31
   6  -1   2   20.07    0.68
  -6   1  -2   20.13    0.74
   6  -1   3  100.42    2.46
  -6   1  -3  100.30    2.82
   6  -1   4   31.31    1.23
  -6   1  -4   30.69    1.04
   6  -1   5   20.69    0.74
  -6   1  -5   21.48    0.86
   6  -1   6    0.00    0.49
  -6   1  -6    1.84    0.37
   6  -1   7    0.06    0.25
  -6   1  -7    0.00    0.43
  -6   0   6    0.06    0.18
  -6   0   6   -0.06    0.31
   6   0  -5    6.94    0.43
  -6   0   5    6.32    0.43
  -6   0   5    6.26    0.37
   6   0  -4    1.84    0.25
  -6   0   4    2.21    0.49
  -6   0   4    1.78    0.43
   6   0  -3    5.65    0.37
  -6   0   3    5.83    0.37
  -6   0   3    6.02    0.43
   6   0  -2    0.18    0.18
  -6   0   2    0.25    0.25
  -6   0   2    0.31    0.25
   6   0  -1   -0.12    0.31
  -6   0   1    0.00    0.37
   6   0   0    7.43    0.43
  -6   0   0    8.59    0.74
   6   0   1   58.44    1.53
  -6   0  -1   59.30    1.90
   6   0   2   75.75    1.90
  -6   0  -2   75.81    2.03
   6   0   3   50.52    1.35
  -6   0  -3   52.48    1.47
   6   0   4    1.78    0.31
  -6   0  -4    1.72    0.37
   6   0   5   17.37    0.68
  -6   0  -5   16.70    0.68
   6   0   6    1.47    0.37
  -6   0  -6    0.98    0.31
   6   0   7    6.69    0.49
  -6   0  -7    7.06    0.55
   6   0   8    0.12    0.25
  -6   0  -8    0.00    0.25
  -6  -1   6    3.13    0.55
  -6  -1   6    3.01    0.31
   6   1  -5    0.25    0.31
  -6  -1   5    0.31    0.25
  -6  -1   5    0.18    0.31
   6   1  -4    5.16    0.31
  -6  -1   4    5.28    0.37
  -6  -1   4    5.40    0.37
   6   1  -3   19.09    0.61
  -6  -1   3   20.69    0.74
  -6  -1   3   19.21    0.86
   6   1  -2    4.05    0.43
  -6  -1   2    3.93    0.37
  -6  -1   2    3.87    0.43
   6   1  -1    2.33    0.25
  -6  -1   1    2.03    0.31
  -6  -1   1    2.03    0.37
   6   1   0   84.34    1.96
  -6  -1   0   84.28    2.03
   6   1   1   32.96    0.92
  -6  -1  -1   32.66    0.98
   6   1   2    0.55    0.25
  -6  -1  -2    0.49    0.25
   6   1   3   12.28    0.55
  -6  -1  -3   12.58    0.86
   6   1   4   39.47    1.17
  -6  -1  -4   37.81    1.23
   6   1   5   12.09    0.55
  -6  -1  -5   12.09    0.61
   6   1   6   10.50    0.55
  -6  -1  -6   10.44    0.55
   6   1   7    2.58    0.61
  -6  -1  -7    2.58    0.43
   6   1   8    5.59    0.61
  -6  -1  -8    6.02    0.86
   6   1   9    7.12    0.61
  -6  -1  -9    7.30    0.55
  -6  -2   6    0.25    0.18
  -6  -2   6    0.06    0.43
   6   2  -5    1.04    0.18
  -6  -2   5    0.55    0.31
  -6  -2   5    0.37    0.25
   6   2  -4    2.33    0.25
  -6  -2   4    2.33    0.31
  -6  -2   4    2.03    0.25
   6   2  -3    2.27    0.25
  -6  -2   3    2.15    0.37
  -6  -2   3    2.27    0.31
   6   2  -2    8.41    0.37
  -6  -2   2   10.31    0.55
  -6  -2   2    9.21    0.43
   6   2  -1    2.88    0.25
  -6  -2   1    2.70    0.31
  -6  -2   1    2.76    0.37
   6   2   0  108.46    2.46
  -6  -2   0  106.19    2.52
  -6  -2   0  113.62    2.76
   6   2   1  489.83   11.79
  -6  -2  -1  479.46   11.72
   6   2   2  283.40    6.63
  -6  -2  -2  275.98    6.63
   6   2   3   39.53    1.10
  -6  -2  -3   39.96    1.17
   6   2   4  309.49    7.43
  -6  -2  -4  318.82    8.10
   6   2   5   20.13    0.80
  -6  -2  -5   18.72    0.86
   6   2   6   46.28    1.35
  -6  -2  -6   46.90    1.35
   6   2   7    9.76    0.55
  -6  -2  -7   10.19    0.61
   6   2   8   24.68    0.98
  -6  -2  -8   25.29    0.98
   6   2   9   24.06    1.04
  -6  -2  -9   24.00    1.04
  -6  -3   6   -0.12    0.12
  -6  -3   6    0.00    0.25
  -6  -3   5   15.53    0.49
  -6  -3   5   17.92    0.98
   6   3  -4   67.09    1.72
  -6  -3   4   64.57    1.78
  -6  -3   4   60.77    1.60
   6   3  -3   23.94    0.61
  -6  -3   3   24.25    0.86
  -6  -3   3   24.43    0.68
   6   3  -2    2.64    0.18
  -6  -3   2    3.01    0.31
  -6  -3   2    3.38    0.37
   6   3  -1   30.63    0.74
  -6  -3   1   31.80    0.98
  -6  -3   1   31.00    0.92
   6   3   0    9.88    0.37
  -6  -3   0    9.94    0.74
  -6  -3   0   10.25    0.55
   6   3   1   81.70    1.84
  -6  -3  -1   84.52    2.21
  -6  -3  -1   88.76    2.39
   6   3   2   69.61    1.66
  -6  -3  -2   69.49    1.90
   6   3   3   84.95    2.03
  -6  -3  -3   89.62    2.39
   6   3   4    4.05    0.37
  -6  -3  -4    3.62    0.37
   6   3   5   35.30    1.10
  -6  -3  -5   39.71    1.23
   6   3   6   -0.31    0.49
  -6  -3  -6   -0.18    0.31
   6   3   7   25.72    0.92
  -6  -3  -7   26.46    0.98
   6   3   8   13.50    0.74
  -6  -3  -8   13.93    0.74
   6   3   9    5.28    0.55
  -6  -3  -9    4.54    0.55
  -6  -4   6   -0.12    0.25
  -6  -4   5    5.34    0.31
  -6  -4   5    6.45    0.49
   6   4  -4   15.41    0.49
  -6  -4   4   14.49    0.55
  -6  -4   4   15.59    0.74
   6   4  -3   32.72    0.74
  -6  -4   3   34.50    1.04
  -6  -4   3   34.01    0.86
   6   4  -2    9.21    0.31
  -6  -4   2    9.76    0.37
  -6  -4   2   10.68    0.74
   6   4  -1    0.92    0.25
  -6  -4   1    0.49    0.31
  -6  -4   1    0.61    0.31
   6   4   0    1.96    0.18
  -6  -4   0    2.15    0.25
  -6  -4   0    1.78    0.31
   6   4   1  105.95    2.52
  -6  -4  -1  106.50    2.46
  -6  -4  -1  104.41    2.46
   6   4   2    9.58    0.37
  -6  -4  -2   10.01    0.43
  -6  -4  -2    9.70    0.43
   6   4   3    7.24    0.37
  -6  -4  -3    7.18    0.37
  -6  -4  -3    7.55    0.37
   6   4   4   55.31    1.41
  -6  -4  -4   57.45    1.47
   6   4   5    2.76    0.49
  -6  -4  -5   10.37    0.61
   6   4   6   61.87    1.66
  -6  -4  -6   61.38    1.72
   6   4   7   32.72    1.10
  -6  -4  -7   33.15    1.10
   6   4   8   24.55    0.98
  -6  -4  -8   26.39    1.35
   6   4   9    6.69    0.61
  -6  -4  -9    7.12    0.61
   6   4  10    0.37    0.37
  -6  -4 -10    0.37    0.37
  -6  -5   5    7.18    0.55
  -6  -5   4   20.44    0.86
   6   5  -3   17.68    0.43
  -6  -5   3   17.92    0.55
  -6  -5   3   19.77    0.80
   6   5  -2    0.06    0.06
  -6  -5   2   -0.06    0.25
  -6  -5   2    0.06    0.12
   6   5  -1   14.06    0.49
  -6  -5   1   14.30    0.43
  -6  -5   1   14.55    0.61
   6   5   0    3.44    0.18
  -6  -5   0    1.96    0.37
  -6  -5   0    3.07    0.37
   6   5   1   36.95    0.86
  -6  -5  -1   37.87    0.92
  -6  -5  -1   36.52    0.98
   6   5   2    0.49    0.18
  -6  -5  -2    0.43    0.18
  -6  -5  -2    0.61    0.18
   6   5   3    4.36    0.31
  -6  -5  -3    4.30    0.49
  -6  -5  -3    4.36    0.31
   6   5   4    3.99    0.31
  -6  -5  -4    3.81    0.31
  -6  -5  -4    3.50    0.55
   6   5   5   59.91    1.60
  -6  -5  -5   56.29    1.41
  -6  -5  -5   54.75    1.53
   6   5   6  124.18    3.50
  -6  -5  -6  121.72    3.01
  -6  -5  -6  126.94    3.25
   6   5   7   11.48    0.61
  -6  -5  -7   11.17    0.61
  -6  -5  -7   11.05    0.43
   6   5   8    7.00    0.55
  -6  -5  -8    5.71    0.86
  -6  -5  -8    5.95    0.31
   6   5   9    2.95    0.49
  -6  -5  -9    3.38    0.49
   6   5  10    2.09    0.49
  -6  -5 -10    1.96    0.49
   6   6  -5    0.31    0.37
  -6  -6   5    0.31    0.37
   6   6  -4    2.58    0.49
  -6  -6   4    2.82    0.49
   6   6  -3    9.58    0.68
  -6  -6   3   11.29    0.68
   6   6  -2   12.15    0.68
   6   6  -2   11.17    0.25
  -6  -6   2   11.97    0.31
  -6  -6   2   13.14    0.92
   6   6  -1   26.76    0.55
  -6  -6   1   28.24    0.92
  -6  -6   1   26.95    0.68
   6   6   0   45.48    0.98
  -6  -6   0   46.77    1.17
  -6  -6   0   47.02    1.29
   6   6   1   32.66    0.80
  -6  -6  -1   33.09    0.98
  -6  -6  -1   32.78    0.86
   6   6   2    2.03    0.18
  -6  -6  -2    2.64    0.49
  -6  -6  -2    2.76    0.25
   6   6   3   36.34    0.98
  -6  -6  -3   35.72    0.98
  -6  -6  -3   37.87    1.23
   6   6   4   28.11    0.86
  -6  -6  -4   27.19    0.86
  -6  -6  -4   27.13    0.80
   6   6   5   21.12    0.74
  -6  -6  -5   20.50    0.98
  -6  -6  -5   20.19    0.74
   6   6   6  247.68    6.08
  -6  -6  -6  252.47    6.32
  -6  -6  -6  235.89    5.46
   6   6   7   56.29    1.60
  -6  -6  -7   58.99    1.72
  -6  -6  -7   53.77    1.23
   6   6   8    0.74    0.37
  -6  -6  -8    0.86    0.55
  -6  -6  -8    0.55    0.18
   6   6   9    0.12    0.37
  -6  -6  -9    0.18    0.31
   6   6  10    2.09    0.49
  -6  -6 -10    2.33    0.49
   6   7  -4    5.59    0.98
  -6  -7   4    5.59    0.61
   6   7  -3   11.97    0.74
  -6  -7   3   13.14    0.68
   6   7  -2   52.85    1.72
  -6  -7   2   55.06    1.66
   6   7  -1   16.63    0.80
   6   7  -1   15.53    0.31
  -6  -7   1   16.39    0.43
  -6  -7   1   17.37    0.74
   6   7   0   63.53    1.78
   6   7   0   67.64    1.41
  -6  -7   0   72.68    1.53
  -6  -7   0   72.55    1.90
   6   7   1  163.95    3.56
  -6  -7  -1  166.41    3.68
  -6  -7  -1  167.70    4.11
   6   7   2   19.09    0.55
  -6  -7  -2   19.34    0.68
  -6  -7  -2   19.27    0.86
   6   7   3    5.16    0.31
  -6  -7  -3    5.46    0.31
  -6  -7  -3    5.16    0.31
   6   7   4   12.64    0.49
  -6  -7  -4   12.46    0.49
  -6  -7  -4   12.58    0.61
   6   7   5   13.14    0.74
  -6  -7  -5   13.14    0.43
  -6  -7  -5   13.50    0.55
   6   7   6   30.20    0.98
  -6  -7  -6   29.03    1.17
  -6  -7  -6   29.77    0.74
   6   7   7   11.60    0.61
  -6  -7  -7   11.72    0.37
  -6  -7  -7   12.09    0.61
   6   7   8    0.18    0.49
  -6  -7  -8    0.25    0.49
   6   7   9    0.49    0.61
  -6  -7  -9    0.37    0.37
   6   8  -3    1.47    0.43
   6   8  -2    4.05    0.49
  -6  -8   2    4.67    0.49
   6   8  -1    1.47    0.61
  -6  -8   1    1.78    0.37
   6   8   0    0.25    0.31
  -6  -8   0    0.18    0.25
   6   8   1   28.48    0.98
   6   8   1   28.36    0.68
  -6  -8  -1   29.53    0.92
   6   8   2   12.03    0.49
  -6  -8  -2   12.22    0.37
  -6  -8  -2   11.97    0.49
   6   8   3    3.44    0.25
  -6  -8  -3    3.50    0.25
  -6  -8  -3    3.31    0.31
   6   8   4    3.81    0.31
  -6  -8  -4    4.17    0.31
  -6  -8  -4    3.99    0.25
   6   8   5   31.31    0.92
  -6  -8  -5   31.80    0.92
  -6  -8  -5   31.86    0.80
   6   8   6   25.90    1.04
  -6  -8  -6   26.15    0.86
  -6  -8  -6   25.90    0.68
   6   8   7    0.00    0.18
  -6  -8  -7    0.00    0.18
  -6  -8  -7    0.00    0.06
   6   8   8    1.66    0.37
   6   8   9    0.55    0.37
   6   9  -1    4.91    0.55
   6   9   0    8.65    0.80
   6   9   1   26.33    0.92
   6   9   2    9.45    0.49
   6   9   2   10.19    0.43
  -6  -9  -2   10.25    0.49
   6   9   3    5.40    0.25
  -6  -9  -3    5.65    0.37
   6   9   4    3.13    0.37
  -6  -9  -4    2.95    0.25
   6   9   5    1.96    0.25
  -6  -9  -5    2.21    0.18
   6   9   6   17.99    0.68
   6   9   7    1.29    0.31
   6   9   8    3.68    0.43
   6  10   1    0.18    0.49
   6  10   2    1.29    0.31
   6  10   3    0.12    0.12
   6  10   3    0.06    0.12
   6  10   4    3.44    0.37
   6  10   5    1.23    0.37
   6  10   6    0.06    0.18
   7  -3  -1    3.93    0.49
  -7   3   1    3.56    0.49
   7  -3   0    0.61    0.31
  -7   3   0    0.43    0.37
   7  -3   1    1.53    0.37
  -7   3  -1    0.92    0.61
   7  -2  -3    0.37    0.31
  -7   2   3    0.31    0.37
  -7   2   3    0.61    0.31
   7  -2  -2    1.29    0.37
  -7   2   2    1.29    0.37
   7  -2  -1    2.33    0.43
  -7   2   1    2.82    0.43
   7  -2   0   16.76    1.04
  -7   2   0   15.41    0.80
   7  -2   1   14.12    0.68
  -7   2  -1   13.38    1.04
   7  -2   2   10.50    0.61
  -7   2  -2   10.25    0.92
   7  -2   3    2.82    0.43
  -7   2  -3    3.07    0.74
   7  -2   4   17.06    0.74
  -7   2  -4   17.25    0.86
   7  -1  -4    0.49    0.31
  -7   1   4    0.49    0.49
  -7   1   4    0.49    0.31
   7  -1  -3    2.58    0.37
  -7   1   3    2.52    0.43
  -7   1   3    3.01    0.43
   7  -1  -2    0.12    0.25
  -7   1   2    0.06    0.25
   7  -1  -1    3.74    0.37
  -7   1   1    3.68    0.43
   7  -1   0    7.49    0.49
  -7   1   0    7.49    0.55
   7  -1   1   96.00    2.52
  -7   1  -1   92.44    2.58
   7  -1   2   39.84    1.23
  -7   1  -2   38.30    1.23
   7  -1   3    4.11    0.43
  -7   1  -3    4.48    0.49
   7  -1   4    1.78    0.61
  -7   1  -4    2.03    0.43
   7  -1   5    6.51    0.55
  -7   1  -5    6.32    0.61
   7   0  -5    0.00    0.18
  -7   0   5    0.06    0.18
  -7   0   5    0.00    0.18
   7   0  -4    0.00    0.25
  -7   0   4    0.31    0.43
  -7   0   4    0.37    0.43
   7   0  -3    2.09    0.49
  -7   0   3    2.15    0.37
  -7   0   3    2.21    0.37
   7   0  -2    1.72    0.31
  -7   0   2    1.72    0.37
  -7   0   2    1.78    0.37
   7   0  -1    2.39    0.31
  -7   0   1    2.33    0.37
   7   0   0   31.37    0.98
  -7   0   0   29.03    0.98
   7   0   1   75.68    1.96
  -7   0  -1   73.66    2.03
   7   0   2   19.77    0.74
  -7   0  -2   20.19    0.86
   7   0   3    4.54    0.43
  -7   0  -3    4.73    0.49
   7   0   4    4.91    0.74
  -7   0  -4    5.59    0.49
   7   0   5    4.79    0.49
  -7   0  -5    5.28    0.49
   7   0   6    7.24    1.04
  -7   0  -6    9.15    0.68
   7   0   7   10.13    0.68
  -7   0  -7   10.19    1.04
   7   1  -5    0.00    0.18
  -7  -1   5    0.00    0.18
  -7  -1   5    0.06    0.18
   7   1  -4    2.33    0.31
  -7  -1   4    2.46    0.61
  -7  -1   4    2.46    0.31
   7   1  -3   16.94    0.68
  -7  -1   3   17.49    0.92
  -7  -1   3   17.68    0.80
   7   1  -2   42.97    1.23
  -7  -1   2   41.49    1.23
  -7  -1   2   43.64    1.35
   7   1  -1    0.00    0.18
  -7  -1   1    0.00    0.18
  -7  -1   1    0.06    0.25
   7   1   0    1.47    0.31
  -7  -1   0    1.84    0.37
   7   1   1   20.56    0.74
  -7  -1  -1   20.87    1.10
   7   1   2   57.82    1.53
  -7  -1  -2   59.97    1.96
   7   1   3    4.17    0.37
  -7  -1  -3    4.73    0.74
   7   1   4    0.06    0.25
  -7  -1  -4    0.06    0.43
   7   1   5    9.08    0.55
  -7  -1  -5    9.02    0.61
   7   1   6   34.68    1.23
  -7  -1  -6   34.19    1.23
   7   1   7    4.36    0.61
  -7  -1  -7    5.16    0.61
   7   2  -5    2.88    0.43
  -7  -2   5    3.25    0.55
  -7  -2   5    3.19    0.43
   7   2  -4    0.06    0.18
  -7  -2   4    0.18    0.25
  -7  -2   4   -0.06    0.18
   7   2  -3    2.70    0.25
  -7  -2   3    2.52    0.49
  -7  -2   3    3.13    0.68
   7   2  -2   68.20    1.96
  -7  -2   2   69.61    1.96
  -7  -2   2   65.31    1.78
   7   2  -1  118.59    2.88
  -7  -2   1  115.52    2.88
  -7  -2   1  117.85    3.07
   7   2   0   91.21    2.52
  -7  -2   0   91.58    2.64
  -7  -2   0   94.41    2.52
   7   2   1    3.50    0.37
  -7  -2  -1    3.13    0.37
   7   2   2  100.61    2.46
  -7  -2  -2  107.24    2.70
   7   2   3   20.44    0.80
  -7  -2  -3   20.75    0.80
   7   2   4    2.58    0.37
  -7  -2  -4    2.82    0.43
   7   2   5    7.12    0.49
  -7  -2  -5    6.94    0.55
   7   2   6   66.29    1.90
  -7  -2  -6   65.43    1.90
   7   2   7   47.69    1.53
  -7  -2  -7   46.84    1.90
   7   2   8    0.00    0.55
  -7  -2  -8    0.06    0.55
   7   3  -5    0.25    0.18
  -7  -3   5    0.18    0.18
  -7  -3   5    0.37    0.31
   7   3  -4    0.86    0.18
  -7  -3   4    0.80    0.31
  -7  -3   4    0.74    0.25
   7   3  -3    0.00    0.12
  -7  -3   3    0.06    0.18
  -7  -3   3    0.06    0.25
   7   3  -2   12.09    0.43
  -7  -3   2   12.77    0.92
  -7  -3   2   12.64    0.49
   7   3  -1   10.62    0.55
  -7  -3   1   10.93    0.86
  -7  -3   1   10.13    0.49
   7   3   0   13.01    0.49
  -7  -3   0   13.26    0.80
  -7  -3   0   12.58    0.98
   7   3   1   74.09    2.03
  -7  -3  -1   77.59    2.03
  -7  -3  -1   83.79    2.58
   7   3   2    1.53    0.31
  -7  -3  -2    1.90    0.37
  -7  -3  -2    3.01    0.43
   7   3   3   27.93    0.92
  -7  -3  -3   28.73    0.98
   7   3   4   13.69    0.61
  -7  -3  -4   14.55    0.68
   7   3   5   24.12    0.86
  -7  -3  -5   24.31    0.92
   7   3   6   46.77    1.41
  -7  -3  -6   47.39    1.47
   7   3   7    9.33    0.61
  -7  -3  -7   10.13    0.68
   7   3   8    1.78    0.80
  -7  -3  -8    1.90    0.49
  -7  -4   5    0.80    0.37
   7   4  -4    0.98    0.18
  -7  -4   4    1.04    0.18
  -7  -4   4    0.98    0.37
   7   4  -3    4.48    0.37
  -7  -4   3    4.54    0.31
  -7  -4   3    4.79    0.49
   7   4  -2   11.36    0.49
  -7  -4   2   11.85    0.61
  -7  -4   2   11.23    0.43
   7   4  -1   12.28    0.43
  -7  -4   1   12.95    0.49
  -7  -4   1   11.91    0.61
   7   4   0   -0.06    0.18
  -7  -4   0    0.00    0.18
  -7  -4   0    0.12    0.18
   7   4   1    0.31    0.18
  -7  -4  -1    1.47    0.31
  -7  -4  -1    1.41    0.31
   7   4   2    5.16    0.55
  -7  -4  -2    7.43    0.68
  -7  -4  -2    5.95    0.43
   7   4   3    2.03    0.31
  -7  -4  -3    3.07    0.37
  -7  -4  -3    2.95    0.37
   7   4   4    6.14    0.43
  -7  -4  -4    6.87    0.49
  -7  -4  -4    5.46    0.43
   7   4   5   17.99    0.74
  -7  -4  -5   18.41    0.80
   7   4   6   76.79    2.09
  -7  -4  -6   78.08    2.21
   7   4   7   22.40    0.92
  -7  -4  -7   22.16    0.98
   7   4   8   -0.31    0.49
  -7  -4  -8    0.12    0.31
   7   4   9    2.21    0.49
  -7  -4  -9    2.21    0.80
  -7  -5   4    0.25    0.31
   7   5  -3    0.55    0.18
  -7  -5   3    0.74    0.37
  -7  -5   3    0.61    0.25
   7   5  -2   11.91    0.37
  -7  -5   2   11.66    0.43
  -7  -5   2   11.91    0.61
   7   5  -1    0.18    0.12
  -7  -5   1    0.31    0.18
  -7  -5   1    0.25    0.43
   7   5   0   16.88    0.49
  -7  -5   0   16.82    0.98
  -7  -5   0   17.06    0.55
  -7  -5   0   15.96    0.68
   7   5   1    0.68    0.18
  -7  -5  -1    0.74    0.31
  -7  -5  -1    0.80    0.37
   7   5   2   30.08    0.86
  -7  -5  -2   30.32    0.92
  -7  -5  -2   27.50    0.92
   7   5   3   62.12    1.78
  -7  -5  -3   62.24    1.66
  -7  -5  -3   62.49    1.66
   7   5   4   49.41    1.53
  -7  -5  -4   48.19    1.29
  -7  -5  -4   50.33    1.66
   7   5   5    4.11    0.37
  -7  -5  -5    3.87    0.37
  -7  -5  -5    4.11    0.43
   7   5   6   31.43    1.04
  -7  -5  -6   31.67    1.10
  -7  -5  -6   31.18    0.92
   7   5   7   19.40    0.86
  -7  -5  -7   19.83    0.86
  -7  -5  -7   18.66    0.68
   7   5   8    1.23    0.68
  -7  -5  -8    1.47    0.74
   7   5   9    3.25    0.86
  -7  -5  -9    3.62    0.55
  -7  -6   4    2.09    0.80
  -7  -6   3   30.14    1.53
   7   6  -2   43.27    1.04
  -7  -6   2   47.76    1.53
  -7  -6   2   45.61    1.04
   7   6  -1    4.05    0.25
  -7  -6   1    4.42    0.49
  -7  -6   1    4.17    0.25
   7   6   0    5.03    0.25
  -7  -6   0    5.16    0.43
  -7  -6   0    4.97    0.25
   7   6   1   14.73    0.43
  -7  -6  -1   14.49    0.86
  -7  -6  -1   15.04    0.68
   7   6   2    1.78    0.25
  -7  -6  -2    2.39    0.31
  -7  -6  -2    2.09    0.25
   7   6   3   30.63    0.86
  -7  -6  -3   29.22    0.92
  -7  -6  -3   30.57    1.17
   7   6   4  128.72    3.13
  -7  -6  -4  123.99    2.95
  -7  -6  -4  129.46    3.19
   7   6   5   30.38    0.98
  -7  -6  -5   29.71    0.86
  -7  -6  -5   30.88    1.29
   7   6   6    9.88    0.80
  -7  -6  -6    9.82    0.43
  -7  -6  -6   10.13    0.61
   7   6   7    6.38    0.55
  -7  -6  -7    6.45    0.37
  -7  -6  -7    6.94    0.55
   7   6   8    4.91    0.55
  -7  -6  -8    4.17    0.31
  -7  -6  -8    4.85    0.86
   7   6   9    3.93    0.55
  -7  -6  -9    3.74    0.55
  -7  -7   3    0.55    0.37
  -7  -7   2   41.99    1.47
  -7  -7   1   45.42    1.78
   7   7   0    0.25    0.12
  -7  -7   0    0.37    0.31
  -7  -7   0    0.31    0.12
   7   7   1    6.32    0.25
  -7  -7  -1    6.38    0.49
  -7  -7  -1    6.08    0.31
   7   7   2   27.50    0.74
  -7  -7  -2   28.48    1.10
  -7  -7  -2   28.24    0.80
   7   7   3   24.06    0.74
  -7  -7  -3   24.25    0.80
  -7  -7  -3   24.61    0.74
   7   7   4   11.11    0.49
  -7  -7  -4   10.62    0.61
  -7  -7  -4   11.11    0.74
   7   7   5    4.30    0.55
  -7  -7  -5    4.48    0.31
  -7  -7  -5    4.42    0.37
   7   7   6    2.15    0.37
  -7  -7  -6    2.46    0.25
  -7  -7  -6    2.70    0.55
   7   7   7    0.80    0.55
  -7  -7  -7    0.80    0.18
  -7  -7  -7    0.80    0.37
   7   7   8    0.25    0.37
  -7  -7  -8    0.18    0.12
  -7  -7  -8    0.18    0.55
  -7  -8   2    3.56    0.80
  -7  -8   1    7.61    0.55
  -7  -8   0    0.37    0.31
   7   8   1    4.67    0.25
  -7  -8  -1    5.03    0.25
  -7  -8  -1    5.16    0.43
   7   8   2   17.80    0.61
  -7  -8  -2   18.23    0.68
  -7  -8  -2   18.23    0.74
   7   8   3   37.32    0.98
  -7  -8  -3   36.77    0.98
  -7  -8  -3   37.57    1.10
   7   8   4    6.63    0.37
  -7  -8  -4    7.06    0.55
  -7  -8  -4    7.30    0.55
   7   8   5    3.62    0.37
  -7  -8  -5    3.50    0.55
  -7  -8  -5    3.87    0.31
   7   8   6    0.00    0.25
  -7  -8  -6    0.55    0.25
  -7  -8  -6    0.00    0.18
   7   8   7    7.49    0.55
  -7  -8  -7    7.61    0.55
  -7  -8  -7    7.67    0.31
   7   8   8    0.55    0.37
  -7  -8  -8    0.43    0.37
  -7  -9   0    1.10    0.37
  -7  -9  -1    4.42    0.43
   7   9   2    9.33    0.43
  -7  -9  -2    9.82    0.55
   7   9   3    6.51    0.31
  -7  -9  -3    6.20    0.61
   7   9   4   11.05    0.61
  -7  -9  -4   11.05    0.49
  -7  -9  -4   11.11    0.68
   7   9   5    0.00    0.18
  -7  -9  -5    0.12    0.18
  -7  -9  -5    0.00    0.18
   7   9   6    0.06    0.31
  -7  -9  -6    1.29    0.31
  -7  -9  -6    1.35    0.31
   7   9   7    0.06    0.37
  -7  -9  -7    0.00    0.25
   8  -1  -1   29.34    1.10
  -8   1   1   27.13    1.10
   8  -1   0    2.64    0.43
  -8   1   0    2.09    0.74
   8  -1   1    0.18    0.49
  -8   1  -1    0.12    0.31
   8  -1   2    0.68    0.37
  -8   1  -2    0.55    0.37
   8   0  -2   31.43    1.10
  -8   0   2   36.77    1.78
  -8   0   2   28.05    1.47
   8   0  -1   27.99    1.04
  -8   0   1   27.13    1.10
   8   0   0    1.04    0.37
  -8   0   0    1.10    0.43
   8   0   1    0.80    0.37
  -8   0  -1    0.74    0.43
   8   0   2    0.61    0.37
  -8   0  -2    0.61    0.68
   8   0   3    0.49    0.37
  -8   0  -3    0.18    0.43
   8   0   4    1.17    0.68
  -8   0  -4    1.29    0.49
   8   1  -3    0.00    0.43
  -8  -1   3    0.68    0.61
  -8  -1   3    0.25    0.49
   8   1  -2    2.95    0.37
  -8  -1   2    2.58    0.55
  -8  -1   2    2.27    0.49
   8   1  -1    3.99    0.43
  -8  -1   1    2.95    0.80
  -8  -1   1    3.81    0.55
   8   1   0    2.70    0.37
  -8  -1   0    2.58    0.43
   8   1   1    0.37    0.31
  -8  -1  -1    0.31    0.31
   8   1   2    9.33    0.55
  -8  -1  -2    9.94    0.68
   8   1   3   38.00    1.23
  -8  -1  -3   37.20    1.35
   8   1   4   16.02    1.10
  -8  -1  -4   13.87    0.86
   8   1   5   31.31    1.17
  -8  -1  -5   31.86    1.23
   8   1   6   13.57    1.17
  -8  -1  -6   12.64    0.80
   8   2  -3   46.34    1.60
  -8  -2   3   53.53    2.15
  -8  -2   3   46.59    1.47
   8   2  -2   62.86    1.78
  -8  -2   2   64.39    2.03
  -8  -2   2   62.18    1.84
   8   2  -1    0.00    0.31
  -8  -2   1    1.04    0.31
  -8  -2   1    1.17    0.43
   8   2   0   87.53    2.27
  -8  -2   0   86.92    2.46
  -8  -2   0   89.62    2.52
   8   2   1   18.97    0.74
  -8  -2  -1   19.27    0.86
  -8  -2  -1   12.46    0.86
   8   2   2   10.80    0.55
  -8  -2  -2   11.85    1.04
   8   2   3   29.53    0.98
  -8  -2  -3   31.37    1.17
   8   2   4   29.59    1.35
  -8  -2  -4   30.20    1.17
   8   2   5    7.06    0.61
  -8  -2  -5    6.69    0.61
   8   2   6    3.44    0.80
  -8  -2  -6    0.55    0.49
   8   3  -3    7.12    0.55
  -8  -3   3    7.18    0.98
  -8  -3   3    6.57    0.61
  -8  -3   3    7.18    0.49
   8   3  -2   27.01    0.86
  -8  -3   2   28.42    1.53
  -8  -3   2   27.07    0.98
   8   3  -1   26.46    0.86
  -8  -3   1   27.68    1.47
  -8  -3   1   26.89    0.98
   8   3   0    8.65    0.49
  -8  -3   0    8.90    1.04
  -8  -3   0    8.78    0.55
   8   3   1   24.12    1.04
  -8  -3  -1   26.09    1.29
  -8  -3  -1   24.37    0.98
   8   3   2    0.06    0.31
  -8  -3  -2   -0.12    0.25
  -8  -3  -2    0.06    0.25
  -8  -3  -3   58.44    1.78
   8   3   4   21.12    0.86
  -8  -3  -4   21.98    0.92
   8   3   5    0.86    0.37
  -8  -3  -5    0.86    0.37
   8   3   6    3.56    0.80
  -8  -3  -6    2.58    0.49
   8   3   7   28.79    1.23
  -8  -3  -7   26.95    1.17
   8   4  -3    3.13    0.25
  -8  -4   3    2.82    0.55
  -8  -4   3    2.95    0.49
   8   4  -2    7.80    0.37
  -8  -4   2    7.86    0.61
  -8  -4   2    7.73    0.49
   8   4  -1    1.53    0.25
  -8  -4   1    1.84    0.31
  -8  -4   1    2.03    0.43
   8   4   0   13.26    0.68
  -8  -4   0   13.44    0.61
  -8  -4   0   13.26    0.68
   8   4   1    1.66    0.25
  -8  -4  -1    1.84    0.55
  -8  -4  -1    1.47    0.43
   8   4   2   11.48    0.49
  -8  -4  -2   12.28    0.61
  -8  -4  -2   11.48    0.68
   8   4   3   43.58    1.23
  -8  -4  -3   44.75    1.41
  -8  -4  -3   42.97    1.35
   8   4   4   48.37    1.41
  -8  -4  -4   48.68    1.53
  -8  -4  -4   47.26    1.47
   8   4   5    0.37    0.31
  -8  -4  -5    0.25    0.37
   8   4   6    0.00    0.25
  -8  -4  -6    0.00    0.49
   8   4   7   23.69    1.04
  -8  -4  -7   24.00    1.10
   8   5  -3    0.12    0.12
  -8  -5   3    0.12    0.25
  -8  -5   3    0.18    0.31
   8   5  -2    0.31    0.12
  -8  -5   2    0.06    0.31
  -8  -5   2    0.25    0.31
   8   5  -1    0.00    0.12
  -8  -5   1    0.12    0.18
  -8  -5   1    0.12    0.25
   8   5   0    2.27    0.25
  -8  -5   0    2.33    0.49
   8   5   1   15.78    0.74
  -8  -5  -1   16.08    0.68
   8   5   2   42.35    1.17
  -8  -5  -2   44.69    1.60
   8   5   3   23.76    0.80
  -8  -5  -3   24.86    0.92
   8   5   4   26.21    0.92
  -8  -5  -4   27.01    0.98
   8   5   5    2.39    0.61
  -8  -5  -5    2.46    0.43
   8   5   6    1.23    0.37
  -8  -5  -6    1.41    0.43
   8   5   7    0.00    0.31
  -8  -5  -7   -0.12    0.37
   8   5   8    0.25    0.37
  -8  -5  -8    0.25    0.37
  -8  -6   2   -0.06    0.31
   8   6  -1    2.46    0.18
  -8  -6   1    2.52    0.25
  -8  -6   1    3.07    0.74
   8   6   0    7.49    0.31
  -8  -6   0    7.43    0.55
  -8  -6   0    7.67    0.37
   8   6   1    6.38    0.31
  -8  -6  -1    6.02    0.49
  -8  -6  -1    6.38    0.37
   8   6   2   84.40    2.09
  -8  -6  -2   83.17    2.27
  -8  -6  -2   90.29    2.33
   8   6   3   51.44    1.60
  -8  -6  -3   50.82    1.78
  -8  -6  -3   53.40    1.53
   8   6   4    9.27    0.68
  -8  -6  -4    8.90    0.49
  -8  -6  -4    8.96    0.55
   8   6   5    0.12    0.25
  -8  -6  -5    0.06    0.25
  -8  -6  -5    0.18    0.25
   8   6   6    4.36    0.49
  -8  -6  -6    4.67    0.37
  -8  -6  -6    4.05    0.80
   8   6   7   19.58    0.92
  -8  -6  -7   21.05    0.98
  -8  -6  -7   20.93    0.98
   8   6   8    0.12    0.31
  -8  -6  -8    0.06    0.37
  -8  -6  -8    0.06    0.18
  -8  -7   1    6.94    0.61
   8   7   0    2.27    0.18
  -8  -7   0    2.33    0.43
  -8  -7   0    2.21    0.25
   8   7   1    3.56    0.25
  -8  -7  -1    3.44    0.68
  -8  -7  -1    3.44    0.31
   8   7   2   12.89    0.61
  -8  -7  -2   12.34    0.61
  -8  -7  -2   12.22    0.55
   8   7   3   21.85    0.68
  -8  -7  -3   21.30    0.80
  -8  -7  -3   22.22    0.80
   8   7   4    5.40    0.37
  -8  -7  -4    5.16    0.37
  -8  -7  -4    5.22    0.43
   8   7   5    1.72    0.31
  -8  -7  -5    1.47    0.31
  -8  -7  -5    1.84    0.37
   8   7   6    0.86    0.55
  -8  -7  -6    0.68    0.25
  -8  -7  -6    0.49    0.61
   8   7   7    7.24    0.61
  -8  -7  -7    7.43    0.55
  -8  -7  -7    7.49    0.61
  -8  -8   0    5.59    0.86
   8   8   1    8.04    0.31
  -8  -8  -1    8.59    0.37
  -8  -8  -1    8.41    0.55
   8   8   2    4.42    0.25
  -8  -8  -2    4.30    0.31
  -8  -8  -2    4.24    0.43
   8   8   3    0.06    0.18
  -8  -8  -3    0.00    0.18
  -8  -8  -3    0.06    0.25
   8   8   4    3.25    0.31
  -8  -8  -4    3.07    0.55
  -8  -8  -4    3.07    0.37
   8   8   5    0.00    0.25
  -8  -8  -5    0.55    0.25
  -8  -8  -5    0.74    0.49
   8   8   6    3.19    0.43
  -8  -8  -6    3.07    0.31
  -8  -8  -6    3.19    0.43
   8   9   3    3.44    0.25
  -8  -9  -3    3.56    0.31
  -8  -9  -3    3.38    0.61
   8   9   4    0.06    0.25
  -8  -9  -4    0.00    0.18
  -8  -9  -4    0.06    0.18
   9   2   0    4.85    0.49
  -9  -2   0    5.16    0.86
  -9  -2   0    5.22    0.68
   9   2   1    4.97    0.49
  -9  -2  -1    4.60    0.55
  -9  -2  -1    4.48    0.68
   9   2   2    7.12    0.55
  -9  -2  -2    8.04    0.74
   9   2   3   11.29    0.98
  -9  -2  -3   11.66    1.23
   9   3  -1    0.00    0.25
  -9  -3   1    0.43    0.31
  -9  -3   1    0.18    0.37
   9   3   0    0.25    0.25
  -9  -3   0    0.12    0.37
  -9  -3   0    0.06    0.37
   9   3   1    7.67    0.80
  -9  -3  -1    7.73    0.68
  -9  -3  -1    7.61    0.74
   9   3   2    3.44    0.68
  -9  -3  -2    5.46    0.68
  -9  -3  -2    6.26    0.98
   9   3   3    2.33    0.43
  -9  -3  -3    2.46    0.55
  -9  -3  -3    2.88    0.61
   9   3   4   16.08    0.80
  -9  -3  -4   16.27    0.92
   9   3   5   15.10    0.80
  -9  -3  -5   14.73    0.86
   9   4  -1    1.60    0.25
  -9  -4   1    1.96    0.37
  -9  -4   1    1.90    0.49
   9   4   0    6.02    0.43
  -9  -4   0    6.57    0.55
  -9  -4   0    5.65    0.61
   9   4   1    5.83    0.43
  -9  -4  -1    7.37    0.61
  -9  -4  -1    6.45    0.68
   9   4   2    7.67    0.49
  -9  -4  -2    8.78    0.74
  -9  -4  -2    7.18    0.74
   9   4   3    2.03    0.37
  -9  -4  -3    2.52    0.55
  -9  -4  -3    2.03    0.55
   9   4   4    8.23    0.55
  -9  -4  -4    8.41    0.74
  -9  -4  -4    8.04    0.68
   9   4   5   17.19    1.17
  -9  -4  -5   15.71    0.86
  -9  -4  -5   17.25    1.29
   9   5   0   19.77    0.68
  -9  -5   0   20.13    0.98
  -9  -5   0   21.05    1.10
   9   5   1    1.96    0.31
  -9  -5  -1    2.64    0.43
  -9  -5  -1    2.46    0.49
   9   5   2    4.79    0.61
  -9  -5  -2    6.26    0.86
  -9  -5  -2    4.36    0.86
   9   5   3   10.37    0.86
  -9  -5  -3   11.11    0.80
  -9  -5  -3    9.88    0.74
   9   5   4   16.88    0.74
  -9  -5  -4   16.94    0.86
  -9  -5  -4   17.56    0.92
   9   5   5   -0.06    0.25
  -9  -5  -5    0.12    0.25
  -9  -5  -5   -0.06    0.25
   9   6   0   40.70    1.10
  -9  -6   0   41.49    1.23
  -9  -6   0   41.68    1.47
   9   6   1   10.07    0.61
  -9  -6  -1   10.56    0.55
  -9  -6  -1    9.64    0.68
   9   6   2    0.43    0.25
  -9  -6  -2    0.55    0.37
  -9  -6  -2    0.31    0.31
   9   6   3    3.25    0.37
  -9  -6  -3    3.74    0.49
  -9  -6  -3    3.74    0.49
   9   6   4   24.18    0.92
  -9  -6  -4   22.53    0.92
  -9  -6  -4   24.25    1.04
   9   6   5   14.79    0.74
  -9  -6  -5   15.04    0.74
  -9  -6  -5   15.41    0.86
   9   7   2    0.61    0.18
  -9  -7  -2    0.55    0.37
  -9  -7  -2    0.31    0.25
   9   7   3    0.00    0.18
  -9  -7  -3    0.12    0.25
  -9  -7  -3    0.00    0.25
   9   7   4    4.05    0.37
  -9  -7  -4    3.93    0.43
  -9  -7  -4    4.30    0.49
   9   7   5    4.85    0.43
  -9  -7  -5    4.36    0.43
  -9  -7  -5    4.60    0.80
   0   0   0    0.00    0.00

_computing_structure_solution     'SHELXT 2014/5 (Sheldrick, 2014)'
;
loop_
_space_group_symop_operation_xyz
'x, y, z'
'-x, -y, -z'
loop_
_atom_site_label
_atom_site_type_symbol
_atom_site_fract_x
_atom_site_fract_y
_atom_site_fract_z
_atom_site_U_iso_or_equiv
_atom_site_adp_type
_atom_site_occupancy
_atom_site_site_symmetry_order
_atom_site_calc_flag
_atom_site_refinement_flags_posn
_atom_site_refinement_flags_adp
_atom_site_refinement_flags_occupancy
_atom_site_disorder_assembly
_atom_site_disorder_group
Mg1 Mg 0.500000 0.500000 0.500000 0.0256(2) Uani 1 2 d S T P . .
O1 O 0.09343(15) 0.41917(14) 0.31504(13) 0.0372(3) Uani 1 1 d . . . . .
O2 O 0.36464(14) 0.37745(12) 0.41958(12) 0.0322(3) Uani 1 1 d . . . . .
O3 O 0.69891(14) 0.51565(15) 0.28361(11) 0.0367(3) Uani 1 1 d . . . . .
H3 H 0.812541 0.509690 0.287946 0.055 Uiso 1 1 d R . . . .
N1 N 0.3349(2) 0.97527(17) 0.39545(17) 0.0430(3) Uani 1 1 d . . . . .
H1A H 0.440559 0.893466 0.443003 0.052 Uiso 1 1 calc R . . . .
H1B H 0.308162 1.091372 0.377754 0.052 Uiso 1 1 calc R . . . .
N2 N 0.25541(15) 0.73982(14) 0.37737(12) 0.0250(3) Uani 1 1 d . . . . .
C1 C 0.2110(2) 0.92142(17) 0.34861(15) 0.0289(3) Uani 1 1 d . . . . .
C2 C 0.0398(2) 1.05653(19) 0.2672(2) 0.0412(4) Uani 1 1 d . . . . .
H2 H 0.009695 1.182264 0.248516 0.049 Uiso 1 1 calc R . . . .
C3 C -0.0799(3) 0.9995(2) 0.2170(2) 0.0515(5) Uani 1 1 d . . . . .
H3A H -0.193242 1.086805 0.163801 0.062 Uiso 1 1 calc R . . . .
C4 C -0.0338(2) 0.8109(2) 0.2446(2) 0.0430(4) Uani 1 1 d . . . . .
H4 H -0.114496 0.770409 0.210392 0.052 Uiso 1 1 calc R . . . .
C5 C 0.13439(18) 0.68685(17) 0.32384(15) 0.0268(3) Uani 1 1 d . . . . .
C6 C 0.20005(19) 0.47872(17) 0.35537(15) 0.0266(3) Uani 1 1 d . . . . .
C7 C 0.6765(3) 0.5364(2) 0.11994(19) 0.0467(4) Uani 1 1 d . . . . .
H7A H 0.585357 0.479505 0.119538 0.056 Uiso 1 1 calc R . . . .
H7B H 0.808387 0.469716 0.067907 0.056 Uiso 1 1 calc R . . . .
C8 C 0.5958(3) 0.7322(3) 0.0235(2) 0.0612(5) Uani 1 1 d . . . . .
H8A H 0.582721 0.735348 -0.084169 0.092 Uiso 1 1 calc GR . . . .
H8B H 0.688026 0.788313 0.019020 0.092 Uiso 1 1 calc GR . . . .
H8C H 0.464569 0.799265 0.073285 0.092 Uiso 1 1 calc GR . . . .
loop_
_atom_site_aniso_label
_atom_site_aniso_U_11
_atom_site_aniso_U_22
_atom_site_aniso_U_33
_atom_site_aniso_U_23
_atom_site_aniso_U_13
_atom_site_aniso_U_12
Mg1 0.0229(3) 0.0220(3) 0.0343(3) -0.0033(2) -0.0116(2) -0.0093(2)
O1 0.0322(5) 0.0342(5) 0.0558(6) -0.0144(5) -0.0144(4) -0.0156(4)
O2 0.0293(5) 0.0230(5) 0.0479(6) -0.0059(4) -0.0160(4) -0.0098(4)
O3 0.0274(5) 0.0475(6) 0.0341(5) -0.0042(4) -0.0089(4) -0.0152(4)
N1 0.0491(7) 0.0250(6) 0.0624(8) -0.0049(5) -0.0247(6) -0.0163(5)
N2 0.0242(5) 0.0221(5) 0.0300(5) -0.0044(4) -0.0072(4) -0.0097(4)
C1 0.0306(6) 0.0228(6) 0.0335(6) -0.0050(5) -0.0069(5) -0.0102(5)
C2 0.0411(8) 0.0224(6) 0.0564(9) -0.0042(6) -0.0195(7) -0.0062(6)
C3 0.0448(9) 0.0299(7) 0.0759(11) -0.0005(7) -0.0366(8) -0.0055(6)
C4 0.0390(8) 0.0327(7) 0.0624(9) -0.0048(7) -0.0280(7) -0.0128(6)
C5 0.0250(6) 0.0250(6) 0.0319(6) -0.0051(5) -0.0074(5) -0.0103(5)
C6 0.0253(6) 0.0262(6) 0.0320(6) -0.0075(5) -0.0051(4) -0.0123(5)
C7 0.0533(9) 0.0456(9) 0.0401(8) -0.0095(7) -0.0126(7) -0.0156(7)
C8 0.0721(13) 0.0531(11) 0.0435(9) 0.0009(8) -0.0129(8) -0.0167(10)
loop_
_atom_type_symbol
_atom_type_description
_atom_type_scat_dispersion_real
_atom_type_scat_dispersion_imag
_atom_type_scat_source
C C 0.0033 0.0016 'International Tables Vol C Tables 4.2.6.8 and 6.1.1.4'
H H 0.0000 0.0000 'International Tables Vol C Tables 4.2.6.8 and 6.1.1.4'
Mg Mg 0.0486 0.0363 'International Tables Vol C Tables 4.2.6.8 and 6.1.1.4'
N N 0.0061 0.0033 'International Tables Vol C Tables 4.2.6.8 and 6.1.1.4'
O O 0.0106 0.0060 'International Tables Vol C Tables 4.2.6.8 and 6.1.1.4'
loop_
_geom_angle_atom_site_label_1
_geom_angle_atom_site_label_2
_geom_angle_atom_site_label_3
_geom_angle
_geom_angle_site_symmetry_1
_geom_angle_site_symmetry_3
O2 Mg1 O2 180.0 . 2_666
O2 Mg1 O3 92.21(5) 2_666 2_666
O2 Mg1 O3 87.79(5) . 2_666
O2 Mg1 O3 87.79(5) 2_666 .
O2 Mg1 O3 92.21(5) . .
O2 Mg1 N2 101.47(4) . 2_666
O2 Mg1 N2 78.53(4) 2_666 2_666
O2 Mg1 N2 101.47(4) 2_666 .
O2 Mg1 N2 78.53(4) . .
O2 Mg1 C6 22.89(4) 2_666 2_666
O2 Mg1 C6 22.89(4) . .
O2 Mg1 C6 157.11(4) 2_666 .
O2 Mg1 C6 157.11(4) . 2_666
O3 Mg1 O3 180.0 . 2_666
O3 Mg1 N2 90.28(5) 2_666 .
O3 Mg1 N2 90.28(5) . 2_666
O3 Mg1 N2 89.72(5) 2_666 2_666
O3 Mg1 N2 89.71(5) . .
O3 Mg1 C6 94.52(4) . .
O3 Mg1 C6 94.52(4) 2_666 2_666
O3 Mg1 C6 85.48(4) 2_666 .
O3 Mg1 C6 85.48(4) . 2_666
N2 Mg1 N2 180.0 2_666 .
N2 Mg1 C6 55.85(4) . .
N2 Mg1 C6 55.85(4) 2_666 2_666
N2 Mg1 C6 124.15(4) 2_666 .
N2 Mg1 C6 124.15(4) . 2_666
C6 Mg1 C6 180.0 2_666 .
C6 O2 Mg1 118.32(8) . .
Mg1 O3 H3 118.8 . .
C7 O3 Mg1 132.40(9) . .
C7 O3 H3 108.8 . .
H1A N1 H1B 120.0 . .
C1 N1 H1A 120.0 . .
C1 N1 H1B 120.0 . .
C1 N2 Mg1 130.53(9) . .
C1 N2 C5 118.57(11) . .
C5 N2 Mg1 110.90(8) . .
N1 C1 C2 119.75(13) . .
N2 C1 N1 119.02(12) . .
N2 C1 C2 121.21(13) . .
C1 C2 H2 120.5 . .
C3 C2 C1 118.90(13) . .
C3 C2 H2 120.5 . .
C2 C3 H3A 119.8 . .
C2 C3 C4 120.38(13) . .
C4 C3 H3A 119.8 . .
C3 C4 H4 121.0 . .
C5 C4 C3 117.90(14) . .
C5 C4 H4 121.0 . .
N2 C5 C4 123.02(12) . .
N2 C5 C6 115.27(11) . .
C4 C5 C6 121.71(12) . .
O1 C6 Mg1 162.51(9) . .
O1 C6 O2 124.44(12) . .
O1 C6 C5 119.14(11) . .
O2 C6 Mg1 38.79(6) . .
O2 C6 C5 116.41(11) . .
C5 C6 Mg1 77.95(7) . .
O3 C7 H7A 108.7 . .
O3 C7 H7B 108.7 . .
O3 C7 C8 114.15(16) . .
H7A C7 H7B 107.6 . .
C8 C7 H7A 108.7 . .
C8 C7 H7B 108.7 . .
C7 C8 H8A 109.5 . .
C7 C8 H8B 109.5 . .
C7 C8 H8C 109.5 . .
H8A C8 H8B 109.5 . .
H8A C8 H8C 109.5 . .
H8B C8 H8C 109.5 . .
loop_
_geom_bond_atom_site_label_1
_geom_bond_atom_site_label_2
_geom_bond_distance
_geom_bond_site_symmetry_2
Mg1 O2 2.0346(10) .
Mg1 O2 2.0346(10) 2_666
Mg1 O3 2.1219(12) .
Mg1 O3 2.1219(12) 2_666
Mg1 N2 2.1709(14) 2_666
Mg1 N2 2.1710(14) .
Mg1 C6 2.8589(14) 2_666
Mg1 C6 2.8589(14) .
O1 C6 1.2422(16) .
O2 C6 1.2631(16) .
O3 H3 0.8200 .
O3 C7 1.4273(18) .
N1 H1A 0.8600 .
N1 H1B 0.8600 .
N1 C1 1.3497(18) .
N2 C1 1.3399(17) .
N2 C5 1.3596(16) .
C1 C2 1.415(2) .
C2 H2 0.9300 .
C2 C3 1.359(2) .
C3 H3A 0.9300 .
C3 C4 1.394(2) .
C4 H4 0.9300 .
C4 C5 1.3716(19) .
C5 C6 1.5187(18) .
C7 H7A 0.9700 .
C7 H7B 0.9700 .
C7 C8 1.487(3) .
C8 H8A 0.9600 .
C8 H8B 0.9600 .
C8 H8C 0.9600 .
loop_
_geom_torsion_atom_site_label_1
_geom_torsion_atom_site_label_2
_geom_torsion_atom_site_label_3
_geom_torsion_atom_site_label_4
_geom_torsion
_geom_torsion_site_symmetry_1
_geom_torsion_site_symmetry_2
_geom_torsion_site_symmetry_3
_geom_torsion_site_symmetry_4
Mg1 O2 C6 O1 -173.17(10) . . . .
Mg1 O2 C6 C5 8.09(15) . . . .
Mg1 O3 C7 C8 91.24(18) . . . .
Mg1 N2 C1 N1 2.36(19) . . . .
Mg1 N2 C1 C2 -179.04(10) . . . .
Mg1 N2 C5 C4 178.85(12) . . . .
Mg1 N2 C5 C6 -2.11(13) . . . .
N1 C1 C2 C3 178.15(15) . . . .
N2 C1 C2 C3 -0.4(2) . . . .
N2 C5 C6 Mg1 1.53(9) . . . .
N2 C5 C6 O1 177.55(11) . . . .
N2 C5 C6 O2 -3.65(17) . . . .
C1 N2 C5 C4 -1.4(2) . . . .
C1 N2 C5 C6 177.65(10) . . . .
C1 C2 C3 C4 -0.3(3) . . . .
C2 C3 C4 C5 0.2(3) . . . .
C3 C4 C5 N2 0.7(3) . . . .
C3 C4 C5 C6 -178.31(15) . . . .
C4 C5 C6 Mg1 -179.41(14) . . . .
C4 C5 C6 O1 -3.4(2) . . . .
C4 C5 C6 O2 175.41(13) . . . .
C5 N2 C1 N1 -177.34(12) . . . .
C5 N2 C1 C2 1.25(19) . . . .
