#------------------------------------------------------------------------------
#$Date: 2022-09-02 11:14:41 +0300 (Fri, 02 Sep 2022) $
#$Revision: 277590 $
#$URL: file:///home/coder/svn-repositories/cod/cif/8/10/57/8105753.cif $
#------------------------------------------------------------------------------
#
# This file is available in the Crystallography Open Database (COD),
# http://www.crystallography.net/
#
# All data on this site have been placed in the public domain by the
# contributors.
#
data_8105753
loop_
_publ_author_name
'Zhang, Guo-Tao'
'Wang, Hua'
'Li, Hong-Ya'
'Yan, Biao'
_publ_section_title
;
 Crystal structure of bis(5-amino-1,2,4-triazol-4-ium-3-yl)methane
 sulfate, C5H10N8O4S
;
_journal_issue                   4
_journal_name_full
'Zeitschrift f\"ur Kristallographie - New Crystal Structures'
_journal_page_first              571
_journal_page_last               572
_journal_paper_doi               10.1515/ncrs-2022-0133
_journal_volume                  237
_journal_year                    2022
_chemical_formula_moiety
;
C5 H10 N8 2+,S1 O4 2-
;
_chemical_formula_sum            'C5 H10 N8 O4 S'
_chemical_formula_weight         278.27
_chemical_name_systematic
; 
 bis(5-amino-1,2,4-triazol-4-ium-3-yl)methane sulfate
;
_space_group_crystal_system      orthorhombic
_space_group_IT_number           32
_space_group_name_Hall           'P 2 -2ab'
_space_group_name_H-M_alt        'P b a 2'
_atom_sites_solution_hydrogens   mixed
_atom_sites_solution_primary     direct
_atom_sites_solution_secondary   difmap
_cell_angle_alpha                90
_cell_angle_beta                 90
_cell_angle_gamma                90
_cell_formula_units_Z            2
_cell_length_a                   7.7320(11)
_cell_length_b                   12.8686(19)
_cell_length_c                   5.0657(8)
_cell_measurement_reflns_used    1518
_cell_measurement_temperature    296(2)
_cell_measurement_theta_max      29.24
_cell_measurement_theta_min      3.07
_cell_volume                     504.04(13)
_computing_cell_refinement       'SAINT (Bruker, 2009)'
_computing_data_collection       'APEX2 (Bruker, 2009)'
_computing_data_reduction        'SAINT (Bruker, 2009)'
_computing_molecular_graphics    'SHELXTL (Sheldrick, 2008)'
_computing_publication_material  'SHELXTL (Sheldrick, 2008)'
_computing_structure_refinement  'SHELXL-2018/3 (Sheldrick, 2015)'
_computing_structure_solution    'SHELXS-97 (Sheldrick, 2008)'
_diffrn_ambient_temperature      296(2)
_diffrn_measured_fraction_theta_full 1.000
_diffrn_measured_fraction_theta_max 0.913
_diffrn_measurement_device_type  'Bruker APEX-II CCD'
_diffrn_measurement_method       '\f and \w scans'
_diffrn_radiation_type           MoK\a
_diffrn_radiation_wavelength     0.71073
_diffrn_reflns_av_R_equivalents  0.0270
_diffrn_reflns_av_unetI/netI     0.0310
_diffrn_reflns_Laue_measured_fraction_full 1.000
_diffrn_reflns_Laue_measured_fraction_max 0.913
_diffrn_reflns_limit_h_max       7
_diffrn_reflns_limit_h_min       -10
_diffrn_reflns_limit_k_max       18
_diffrn_reflns_limit_k_min       -14
_diffrn_reflns_limit_l_max       7
_diffrn_reflns_limit_l_min       -6
_diffrn_reflns_number            2909
_diffrn_reflns_point_group_measured_fraction_full 0.971
_diffrn_reflns_point_group_measured_fraction_max 0.836
_diffrn_reflns_theta_full        25.242
_diffrn_reflns_theta_max         29.946
_diffrn_reflns_theta_min         3.074
_exptl_absorpt_coefficient_mu    0.350
_exptl_absorpt_correction_T_max  0.955
_exptl_absorpt_correction_T_min  0.892
_exptl_absorpt_correction_type   multi-scan
_exptl_absorpt_process_details   '(SADABS; Sheldrick, 2009)'
_exptl_crystal_colour            colourless
_exptl_crystal_density_diffrn    1.834
_exptl_crystal_density_method    'not measured'
_exptl_crystal_description       rodlike
_exptl_crystal_F_000             288
_exptl_crystal_size_max          0.364
_exptl_crystal_size_mid          0.273
_exptl_crystal_size_min          0.132
_refine_diff_density_max         0.248
_refine_diff_density_min         -0.349
_refine_diff_density_rms         0.061
_refine_ls_abs_structure_details
; 
 Flack x determined using 428 quotients [(I+)-(I-)]/[(I+)+(I-)] 
 (Parsons, Flack and Wagner, Acta Cryst. B69 (2013) 249-259). 
;
_refine_ls_abs_structure_Flack   0.13(4)
_refine_ls_extinction_coef       0.061(7)
_refine_ls_extinction_expression Fc^*^=kFc[1+0.001xFc^2^\l^3^/sin(2\q)]^-1/4^
_refine_ls_extinction_method     'SHELXL-2018/3 (Sheldrick 2018)'
_refine_ls_goodness_of_fit_ref   1.159
_refine_ls_hydrogen_treatment    mixed
_refine_ls_matrix_type           full
_refine_ls_number_parameters     104
_refine_ls_number_reflns         1218
_refine_ls_number_restraints     6
_refine_ls_restrained_S_all      1.158
_refine_ls_R_factor_all          0.0325
_refine_ls_R_factor_gt           0.0298
_refine_ls_shift/su_max          0.000
_refine_ls_shift/su_mean         0.000
_refine_ls_structure_factor_coef Fsqd
_refine_ls_weighting_details
'w=1/[\s^2^(Fo^2^)+(0.0265P)^2^+0.2035P] where P=(Fo^2^+2Fc^2^)/3'
_refine_ls_weighting_scheme      calc
_refine_ls_wR_factor_gt          0.0673
_refine_ls_wR_factor_ref         0.0748
_reflns_Friedel_coverage         0.655
_reflns_Friedel_fraction_full    0.934
_reflns_Friedel_fraction_max     0.740
_reflns_number_gt                1144
_reflns_number_total             1218
_reflns_threshold_expression     'I > 2\s(I)'
_cod_data_source_file            suppl_j_ncrs-2022-0133_suppl.cif
_cod_data_source_block           1
_cod_database_code               8105753
_shelx_space_group_comment
; 
The symmetry employed for this shelxl refinement is uniquely defined 
by the following loop, which should always be used as a source of 
symmetry information in preference to the above space-group names. 
They are only intended as comments. 
;
_shelx_estimated_absorpt_t_min   0.883
_shelx_estimated_absorpt_t_max   0.955
_shelx_res_file
; 
TITL xb5600 in Pba2 
    1.res 
    created by SHELXL-2018/3 at 16:03:28 on 12-Jan-2020 
CELL 0.71073   7.7320  12.8686   5.0657  90.000  90.000  90.000 
ZERR    2.00   0.0011   0.0019   0.0008   0.000   0.000   0.000 
LATT -1 
SYMM -X, -Y, Z 
SYMM 0.5+X, 0.5-Y, Z 
SYMM 0.5-X, 0.5+Y, Z 
SFAC C  H  N  O  S 
UNIT 10 20 16 8 2 
L.S. 40 
ACTA 
BOND $H 
FMAP 2 
PLAN 5 
HTAB N3 O2_$5 
HTAB N4 O1_$5 
EQIV $5 -x+3/2, y-1/2, z 
HTAB N4 N2_$4 
EQIV $4 x-1/2, -y+1/2, z-1 
HTAB N1 O1_$3 
EQIV $3 -x+2, -y+1, z+1 
HTAB N4 O2 
DFIX 0.85 0.01 N1 H1 N3 H3 N4 H4A N4 H4B 
DFIX 0.96 C3 H3A 
CONF 
SIZE 0.364 0.273 0.132 
TEMP 23.000 
WGHT    0.026500    0.203500 
EXTI    0.061220 
FVAR       0.42668 
MOLE 1 
S1    5    1.000000    0.500000    0.001213    10.50000    0.02413    0.01377 = 
         0.02433    0.00000    0.00000    0.00096 
MOLE 2 
N4    3    0.752437    0.249864    0.139331    11.00000    0.03353    0.02717 = 
         0.02969    0.00542   -0.00282   -0.00259 
N3    3    0.852760    0.105020    0.389814    11.00000    0.02476    0.02219 = 
         0.02305   -0.00092   -0.00188   -0.00348 
N1    3    0.941123    0.255756    0.507111    11.00000    0.02742    0.02125 = 
         0.03378   -0.00511   -0.00096   -0.00202 
N2    3    1.019609    0.187051    0.676797    11.00000    0.02758    0.02972 = 
         0.02956   -0.00698   -0.00211    0.00143 
MOLE 1 
O1    4    0.932491    0.585325   -0.160647    11.00000    0.03710    0.02237 = 
         0.03414    0.00675   -0.00222    0.00385 
O2    4    0.858530    0.459901    0.173210    11.00000    0.03241    0.02447 = 
         0.03846    0.00129    0.01031   -0.00098 
MOLE 2 
C1    1    0.842137    0.207716    0.332117    11.00000    0.02236    0.01874 = 
         0.02725   -0.00240    0.00668   -0.00050 
C2    1    0.961706    0.096856    0.603388    11.00000    0.02183    0.02632 = 
         0.02258   -0.00443    0.00176    0.00068 
C3    1    1.000000    0.000000    0.754385    10.50000    0.03414    0.02608 = 
         0.02109    0.00000    0.00000    0.00217 
H4A   2    0.767803    0.311809    0.098586    11.00000    0.05032 
H1    2    0.959812    0.319298    0.537903    11.00000    0.04422 
H4B   2    0.689012    0.216725    0.034179    11.00000    0.03079 
H3A   2    1.093204    0.017157    0.870651    11.00000    0.04967 
H3    2    0.782182    0.061401    0.329415    11.00000    0.06104 
HKLF 4 
  
  
  
  
REM  xb5600 in Pba2 
REM wR2 = 0.0748, GooF = S = 1.159, Restrained GooF = 1.158 for all data 
REM R1 = 0.0298 for 1144 Fo > 4sig(Fo) and 0.0325 for all 1218 data 
REM 104 parameters refined using 6 restraints 
  
END 
  
WGHT      0.0265      0.2028 
  
REM Highest difference peak  0.248,  deepest hole -0.349,  1-sigma level  0.061 
Q1    1   0.8414  0.1661  0.3538  11.00000  0.05    0.25 
Q2    1   0.8943  0.0991  0.5089  11.00000  0.05    0.22 
Q3    1   1.1041  0.2069  0.7809  11.00000  0.05    0.20 
Q4    1   0.7265  0.4258  0.4769  11.00000  0.05    0.20 
Q5    1   1.1209  0.1777  0.6276  11.00000  0.05    0.18 
;
_shelx_res_checksum              42626
_shelx_hkl_file
; 
  -1   0   0   -0.19    0.06 
  -2   0   0  487.75   11.30 
  -2   0   0  508.14   10.62 
  -3   0   0   -0.05    0.06 
  -3   0   0   -0.01    0.06 
  -4   0   0   71.50    1.78 
  -4   0   0   69.64    1.90 
  -5   0   0   -0.02    0.05 
  -5   0   0    0.06    0.08 
  -6   0   0   69.28    1.92 
  -6   0   0   68.75    2.05 
  -7   0   0    0.03    0.10 
  -7   0   0    0.09    0.14 
  -8   0   0   20.58    0.93 
   0   0  -1   17.30    0.48 
  -1   0   1   -0.04    0.03 
  -1   0  -1   -0.03    0.04 
  -1   0  -1   -0.02    0.04 
   2   0   1 1000.00   22.22 
  -2   0   1  944.48   19.90 
  -2   0   1  917.86   21.61 
  -2   0  -1  976.45   21.32 
  -2   0  -1  886.68   20.40 
  -3   0   1    0.30    0.10 
  -3   0   1    0.02    0.05 
  -3   0  -1    0.02    0.05 
  -3   0  -1    0.03    0.05 
  -4   0   1  209.79    5.04 
  -4   0   1  207.11    4.63 
  -4   0  -1  207.43    4.91 
  -5   0   1   -0.06    0.05 
  -5   0   1    0.08    0.10 
  -5   0  -1    0.06    0.07 
  -5   0  -1    0.05    0.08 
  -6   0   1    5.47    0.38 
  -6   0   1    5.03    0.51 
  -6   0  -1    4.65    0.44 
  -6   0  -1    4.75    0.39 
  -7   0   1    0.10    0.15 
  -7   0   1    0.02    0.09 
  -7   0  -1    0.00    0.11 
  -8   0   1   37.54    1.35 
  -8   0   1   36.95    1.49 
  -8   0  -1   38.14    1.41 
  -9   0  -1    0.04    0.15 
   0   0  -2   35.38    0.97 
   1   0   2   -0.08    0.05 
  -1   0   2    0.33    0.09 
  -1   0  -2   -0.10    0.04 
   2   0   2   59.13    1.54 
  -2   0   2   60.23    1.49 
  -2   0  -2   58.50    1.59 
  -2   0  -2   57.73    1.54 
   3   0   2    0.03    0.07 
  -3   0   2    0.01    0.09 
  -3   0   2    0.12    0.10 
  -3   0  -2    0.00    0.05 
  -3   0  -2    0.02    0.07 
  -4   0   2  161.18    3.76 
  -4   0   2  163.69    4.15 
  -4   0  -2  162.76    3.95 
  -4   0  -2  160.50    3.82 
  -5   0   2    0.07    0.11 
  -5   0   2    0.06    0.13 
  -5   0  -2    0.05    0.09 
  -5   0  -2    0.04    0.08 
  -6   0   2    2.54    0.40 
  -6   0   2    1.68    0.26 
  -6   0  -2    2.02    0.32 
  -7   0   2    0.24    0.14 
  -7   0   2    0.02    0.14 
  -7   0  -2   -0.06    0.11 
  -8   0   2    8.07    0.79 
  -8   0  -2    7.88    0.61 
  -9   0   2    0.31    0.26 
  -9   0  -2   -0.06    0.15 
   0   0  -3   14.37    0.60 
  -1   0   3    0.80    0.16 
   1   0   3    0.02    0.08 
  -1   0  -3    0.02    0.06 
  -2   0   3   66.26    1.76 
  -2   0  -3   66.91    1.82 
  -3   0   3   -0.04    0.09 
  -3   0   3    0.00    0.11 
  -3   0  -3    0.07    0.09 
  -3   0  -3    0.05    0.09 
  -4   0   3   36.94    1.40 
  -4   0   3   36.78    1.19 
  -4   0  -3   35.41    1.24 
  -4   0  -3   35.73    1.22 
  -5   0   3   -0.03    0.12 
  -5   0   3    0.11    0.19 
  -5   0  -3    0.11    0.12 
  -6   0   3  130.02    3.27 
  -6   0   3  127.89    3.69 
  -6   0  -3  127.26    3.40 
  -7   0   3    0.09    0.17 
  -7   0  -3    0.24    0.17 
  -8   0   3   21.99    1.22 
  -8   0  -3   22.88    1.13 
  -9   0   3    0.08    0.26 
   0   0   4   18.37    0.79 
   0   0  -4   18.83    0.80 
  -1   0   4    0.09    0.09 
  -1   0  -4   -0.01    0.07 
  -2   0   4   65.97    1.87 
  -2   0  -4   65.76    1.93 
  -3   0   4    0.09    0.12 
  -3   0  -4   -0.01    0.10 
  -4   0   4   28.08    1.07 
  -4   0   4   26.61    1.25 
  -4   0  -4   26.52    1.11 
  -5   0   4   -0.13    0.20 
  -5   0   4   -0.13    0.14 
  -5   0  -4    0.10    0.12 
  -6   0   4    7.76    0.81 
  -6   0  -4    8.07    0.62 
  -7   0   4   -0.20    0.15 
  -7   0  -4    0.03    0.14 
  -8   0   4    8.50    0.92 
   0   0   5   33.36    1.28 
  -1   0   5    0.01    0.12 
  -1   0  -5   -0.01    0.10 
  -2   0   5   30.96    1.20 
  -2   0  -5   30.30    1.23 
  -3   0   5   -0.02    0.14 
  -3   0   5   -0.18    0.13 
  -3   0  -5    0.03    0.13 
  -4   0   5    1.82    0.35 
  -4   0   5    1.36    0.35 
  -4   0  -5    1.67    0.34 
  -5   0   5   -0.11    0.18 
  -5   0  -5    0.16    0.16 
  -6   0   5   12.53    0.96 
  -7   0   5   -0.03    0.25 
   0   0   6   46.41    1.69 
  -1   0   6    0.01    0.14 
   1   0   6    0.15    0.17 
  -2   0   6    8.61    0.65 
  -2   0  -6    8.22    0.75 
  -3   0   6    0.10    0.22 
  -4   0   6    7.00    0.85 
  -8   1   0    9.11    0.68 
  -8   1   0   10.32    0.62 
  -7   1   0    1.46    0.31 
  -7   1   0    1.79    0.27 
  -6   1   0    1.86    0.26 
  -6   1   0    1.61    0.29 
  -5   1   0    0.82    0.20 
  -5   1   0    0.89    0.17 
  -4   1   0   12.43    0.58 
  -4   1   0   13.84    0.52 
  -3   1   0    2.99    0.24 
  -3   1   0    3.63    0.21 
  -2   1   0  251.96    5.76 
  -2   1   0  252.81    5.34 
  -1   1   0   58.67    1.26 
  -1   1   0   57.70    1.42 
   0  -1   0   -0.01    0.00 
  -1  -1   0   60.26    1.31 
   1   1   0   55.01    1.44 
  -2  -1   0  260.06    5.56 
  -3  -1   0    3.28    0.23 
  -3  -1   0    3.34    0.22 
  -4  -1   0   13.85    0.56 
  -4  -1   0   12.88    0.54 
  -5  -1   0    0.98    0.19 
  -5  -1   0    1.20    0.20 
  -6  -1   0    2.03    0.28 
  -6  -1   0    1.45    0.25 
  -7  -1   0    1.48    0.27 
  -8  -1   0   10.12    0.63 
  -9  -1   0    7.30    0.57 
  -9   1   1    5.48    0.68 
  -9   1  -1    3.80    0.51 
  -8   1   1   10.80    0.76 
  -8   1  -1   11.37    0.68 
  -7   1   1   50.63    1.53 
  -7   1   1   50.27    1.77 
  -7   1  -1   47.23    1.57 
  -7   1  -1   50.91    1.69 
  -6   1   1    4.99    0.35 
  -6   1   1    4.36    0.49 
  -6   1  -1    4.90    0.48 
  -6   1  -1    4.21    0.41 
  -5   1   1   47.13    1.32 
  -5   1   1   47.17    1.55 
  -5   1  -1   45.21    1.45 
  -5   1  -1   47.55    1.39 
  -4   1   1   28.07    1.02 
  -4   1   1   28.20    0.84 
  -4   1  -1   27.16    0.94 
  -4   1  -1   28.00    0.89 
  -3   1   1   29.77    0.82 
  -3   1   1   29.75    0.99 
  -3   1  -1   28.56    0.86 
  -3   1  -1   28.88    0.92 
  -2   1   1  371.39    8.66 
  -2   1   1  391.58    8.00 
  -2   1  -1  381.06    8.59 
  -2   1  -1  377.74    8.06 
  -1   1   1  717.18   14.92 
  -1   1   1  663.84   15.96 
  -1   1  -1  709.65   16.05 
  -1   1  -1  717.59   15.19 
   0   1  -1   -0.03    0.03 
   0  -1  -1    0.05    0.04 
  -1  -1   1  703.13   14.90 
   1   1   1  706.07   16.44 
  -1  -1  -1  660.83   14.83 
   2   1   1  388.36    8.89 
  -2  -1   1  385.86    8.09 
  -2  -1  -1  368.37    8.09 
  -3  -1   1   30.01    0.89 
  -3  -1   1   28.33    0.94 
  -3  -1  -1   29.63    0.89 
  -4  -1   1   26.82    0.95 
  -4  -1   1   27.21    0.88 
  -4  -1  -1   26.81    0.90 
  -5  -1   1   47.27    1.48 
  -5  -1   1   44.71    1.34 
  -5  -1  -1   44.73    1.34 
  -5  -1  -1   45.80    1.39 
  -6  -1   1    4.31    0.46 
  -6  -1   1    4.14    0.39 
  -6  -1  -1    4.69    0.44 
  -7  -1   1   48.58    1.63 
  -7  -1   1   44.02    1.46 
  -7  -1  -1   43.72    1.52 
  -8  -1   1   11.04    0.65 
  -8  -1  -1    9.76    0.66 
  -9  -1  -1    4.43    0.54 
  -9   1   2   13.11    0.94 
  -9   1  -2   13.61    0.84 
  -8   1   2    5.69    0.68 
  -8   1  -2    5.44    0.57 
  -7   1   2   43.54    1.69 
  -7   1  -2   42.61    1.50 
  -6   1   2   21.15    1.03 
  -6   1   2   21.37    0.82 
  -6   1  -2   21.04    0.92 
  -6   1  -2   22.43    0.93 
  -5   1   2   77.12    1.99 
  -5   1   2   78.09    2.33 
  -5   1  -2   75.04    2.16 
  -5   1  -2   74.33    2.08 
  -4   1   2   93.12    2.30 
  -4   1   2   92.92    2.63 
  -4   1  -2   93.30    2.39 
  -4   1  -2   95.17    2.51 
  -3   1   2  322.63    7.80 
  -3   1   2  334.88    7.15 
  -3   1  -2  333.87    7.70 
  -3   1  -2  337.64    7.26 
  -2   1   2   19.74    0.63 
  -2   1   2   20.11    0.79 
  -2   1  -2   19.87    0.73 
  -2   1  -2   20.82    0.70 
  -1   1   2   50.86    1.27 
  -1   1  -2   50.26    1.42 
  -1   1  -2   49.19    1.32 
   0  -1  -2    0.02    0.04 
   0   1  -2   -0.01    0.04 
  -1  -1   2   47.33    1.25 
   1   1   2   47.36    1.34 
  -1  -1  -2   48.73    1.26 
   2   1   2   21.13    0.73 
  -2  -1   2   20.45    0.70 
  -2  -1  -2   21.27    0.72 
  -3  -1   2  337.64    7.32 
   3   1   2  335.41    7.96 
  -3  -1  -2  335.57    7.36 
  -4  -1   2   93.85    2.37 
  -4  -1   2   94.47    2.59 
  -4  -1  -2   89.63    2.38 
  -5  -1   2   74.43    2.25 
  -5  -1   2   72.51    2.02 
  -5  -1  -2   78.45    2.12 
  -6  -1   2   20.62    0.98 
  -6  -1   2   20.56    0.86 
  -6  -1  -2   21.38    0.93 
  -7  -1   2   42.20    1.60 
  -7  -1   2   40.08    1.38 
  -7  -1  -2   41.60    1.49 
  -8  -1   2    5.42    0.65 
  -8  -1   2    6.74    0.50 
  -8  -1  -2    6.78    0.65 
  -9  -1  -2   13.12    0.85 
  -9   1   3   16.10    1.11 
  -8   1   3   -0.12    0.19 
  -8   1  -3    0.30    0.20 
  -7   1   3    8.27    0.84 
  -7   1  -3    8.76    0.63 
  -6   1   3    9.41    0.72 
  -6   1  -3   10.42    0.65 
  -5   1   3   25.57    1.19 
  -5   1   3   25.88    0.98 
  -5   1  -3   28.06    1.09 
  -5   1  -3   25.79    1.05 
  -4   1   3   18.71    0.76 
  -4   1   3   20.17    0.97 
  -4   1  -3   20.29    0.85 
  -4   1  -3   19.87    0.85 
  -3   1   3   73.04    1.91 
  -3   1   3   72.50    2.23 
  -3   1  -3   74.45    2.12 
  -3   1  -3   74.61    2.03 
  -2   1   3    2.71    0.27 
  -2   1  -3    2.89    0.32 
  -1   1   3   34.34    1.05 
  -1   1  -3   35.30    1.12 
   0  -1  -3   -0.01    0.05 
   0   1  -3    0.00    0.05 
   1   1   3   31.94    1.05 
  -1  -1   3   31.40    1.01 
  -1  -1  -3   31.55    1.02 
   2   1   3    2.86    0.30 
  -2  -1   3    2.92    0.31 
  -2  -1  -3    2.41    0.28 
  -3  -1   3   71.19    1.94 
  -3  -1  -3   73.58    2.00 
  -4  -1   3   19.47    0.95 
  -4  -1   3   19.90    0.84 
  -4  -1  -3   20.48    0.87 
  -5  -1   3   27.01    1.06 
  -5  -1   3   26.16    1.17 
  -5  -1  -3   25.66    1.06 
  -6  -1   3   10.39    0.74 
  -6  -1   3   10.01    0.63 
  -6  -1  -3   10.17    0.66 
  -7  -1   3    6.15    0.58 
  -7  -1   3    9.04    0.72 
  -7  -1  -3    8.37    0.63 
  -8  -1   3    0.91    0.34 
  -8  -1  -3    0.15    0.17 
  -9  -1   3   16.80    1.12 
  -8   1   4    5.37    0.75 
  -7   1   4   15.79    1.04 
  -7   1  -4   13.48    0.86 
  -6   1   4    5.03    0.66 
  -6   1  -4    5.42    0.59 
  -5   1   4   12.99    0.86 
  -5   1  -4   13.10    0.76 
  -4   1   4   14.00    0.71 
  -4   1   4   15.46    0.89 
  -4   1  -4   14.38    0.78 
  -3   1   4   17.73    0.77 
  -3   1   4   18.51    0.95 
  -3   1  -4   17.59    0.84 
  -2   1   4    1.70    0.26 
  -2   1  -4    1.49    0.26 
  -1   1   4   28.09    1.01 
  -1   1  -4   28.81    1.07 
   0  -1   4    0.03    0.09 
   0  -1  -4    0.02    0.07 
  -1  -1   4   30.44    1.08 
  -1  -1  -4   28.08    1.05 
  -2  -1   4    1.16    0.23 
  -2  -1  -4    1.22    0.23 
  -3  -1   4   17.49    0.80 
  -3  -1  -4   16.08    0.79 
  -4  -1   4   15.76    0.79 
  -4  -1   4   15.52    0.92 
  -4  -1  -4   15.74    0.81 
  -5  -1   4   13.16    0.77 
  -5  -1   4   13.76    0.89 
  -5  -1  -4   13.63    0.78 
  -6  -1   4    6.62    0.76 
  -6  -1  -4    4.77    0.56 
  -7  -1   4   13.55    0.95 
  -7  -1  -4   13.91    0.88 
  -8  -1   4    4.10    0.65 
  -7   1   5    4.11    0.68 
  -6   1   5    0.24    0.24 
  -5   1   5    4.02    0.60 
  -5   1  -5    5.39    0.63 
  -4   1   5    0.33    0.23 
  -4   1  -5    0.32    0.19 
  -3   1   5   11.86    0.83 
  -3   1   5   11.53    0.67 
  -3   1  -5    9.75    0.68 
  -2   1   5   11.34    0.65 
  -2   1  -5    9.88    0.66 
   1  -1   5   12.99    0.74 
  -1   1   5   13.45    0.72 
  -1   1  -5   13.67    0.76 
   0   1   5    0.09    0.13 
   0  -1   5    0.15    0.13 
  -1  -1   5   13.48    0.74 
  -1  -1  -5   13.00    0.74 
  -2  -1   5   10.72    0.66 
  -2  -1  -5   10.40    0.67 
  -3  -1   5   10.84    0.68 
  -3  -1  -5   11.20    0.71 
  -4  -1   5    0.03    0.19 
  -4  -1   5    0.32    0.21 
  -4  -1  -5    0.11    0.16 
  -5  -1   5    4.61    0.65 
  -5  -1  -5    5.70    0.63 
  -6  -1   5    0.36    0.31 
  -7  -1   5    4.23    0.68 
  -4   1   6    0.32    0.20 
  -3   1   6    9.38    0.95 
  -2   1   6    1.30    0.37 
   2  -1   6    0.59    0.23 
  -2   1  -6    0.69    0.26 
   1  -1   6   31.53    1.36 
  -1   1   6   30.82    1.28 
   0   1   6   -0.07    0.14 
   0  -1   6   -0.05    0.14 
  -1  -1   6   32.09    1.36 
   1   1   6   33.53    1.38 
  -2  -1   6    0.80    0.28 
  -2  -1  -6    0.95    0.29 
  -3  -1   6   10.60    0.75 
  -4  -1   6    1.60    0.44 
  -1   1   7    7.03    0.89 
  -8   2   0   18.58    1.00 
  -7   2   0    4.90    0.55 
  -7   2   0    5.31    0.40 
  -6   2   0   62.26    1.72 
  -6   2   0   62.48    1.96 
  -5   2   0    0.42    0.15 
  -5   2   0    0.33    0.11 
  -4   2   0   13.90    0.51 
  -4   2   0   13.93    0.64 
  -3   2   0   74.88    2.02 
  -3   2   0   76.40    1.76 
  -2   2   0  239.13    4.95 
  -2   2   0  229.98    5.43 
  -1   2   0  141.08    2.90 
  -1   2   0  132.83    3.18 
   0  -2   0   -0.59    0.02 
   1   2   0  135.43    3.25 
  -1  -2   0  133.92    2.93 
  -2  -2   0  113.87    2.63 
  -3  -2   0   72.80    1.81 
  -4  -2   0   13.29    0.53 
  -4  -2   0   13.85    0.57 
  -5  -2   0    0.43    0.14 
  -5  -2   0    0.52    0.15 
  -6  -2   0   56.70    1.72 
  -6  -2   0   62.06    1.76 
  -7  -2   0    5.14    0.50 
  -8  -2   0   17.61    0.88 
  -9  -2   0   -0.01    0.13 
  -9   2   1    8.59    0.86 
  -8   2   1    2.14    0.41 
  -8   2  -1    1.83    0.33 
  -7   2   1    2.13    0.38 
  -7   2  -1    2.16    0.38 
  -7   2  -1    2.68    0.35 
  -6   2   1   50.13    1.73 
  -6   2   1   49.90    1.42 
  -6   2  -1   49.98    1.65 
  -6   2  -1   48.89    1.49 
  -5   2   1   51.25    1.39 
  -5   2   1   51.70    1.68 
  -5   2  -1   51.53    1.46 
  -5   2  -1   51.60    1.62 
  -4   2   1   33.41    1.21 
  -4   2   1   35.90    0.98 
  -4   2  -1   35.57    1.17 
  -4   2  -1   36.11    1.05 
  -3   2   1   30.51    0.80 
  -3   2   1   29.42    1.01 
  -3   2  -1   30.17    0.87 
  -3   2  -1   28.85    0.97 
  -2   2   1  495.12   10.14 
  -2   2   1  453.85   10.88 
  -2   2  -1  494.20   10.14 
  -2   2  -1  482.02   10.85 
  -1   2   1   60.50    1.33 
  -1   2   1   61.66    1.57 
  -1   2  -1   59.68    1.57 
  -1   2  -1   60.14    1.43 
   0  -2   1  503.24   10.87 
   0   2   1  474.01   11.02 
   0   2  -1  504.68   11.10 
   0  -2  -1  501.81   10.74 
  -1  -2   1   59.38    1.42 
   1   2   1   58.15    1.57 
  -1  -2  -1   58.47    1.40 
   2   2   1  495.56   11.39 
  -2  -2   1  480.30   10.32 
  -3  -2   1   28.83    0.91 
   3   2   1   29.00    0.96 
  -3  -2   1   29.46    0.94 
  -3  -2  -1   28.62    0.78 
  -3  -2  -1   28.67    0.89 
  -4  -2   1   33.60    1.06 
  -4  -2   1   31.74    1.09 
  -4  -2  -1   35.14    1.08 
  -4  -2  -1   34.27    0.95 
  -5  -2   1   47.89    1.42 
  -5  -2   1   47.41    1.48 
  -6  -2   1   47.81    1.53 
  -6  -2   1   45.13    1.44 
  -6  -2  -1   45.59    1.49 
  -7  -2   1    1.91    0.33 
  -7  -2   1    1.75    0.29 
  -7  -2  -1    2.63    0.36 
  -8  -2   1    1.96    0.33 
  -8  -2  -1    2.17    0.36 
  -9  -2   1    6.13    0.61 
  -9  -2  -1    5.61    0.62 
 -10   2   2    7.17    0.88 
  -9   2   2    3.27    0.58 
  -8   2   2   17.86    1.08 
  -8   2  -2   19.15    0.94 
  -7   2   2    0.30    0.21 
  -7   2  -2    0.21    0.15 
  -6   2   2   62.55    2.11 
  -6   2  -2   62.96    1.97 
  -6   2  -2   61.77    1.85 
  -5   2   2   18.19    0.92 
  -5   2   2   17.55    0.68 
  -5   2  -2   19.86    0.80 
  -5   2  -2   18.69    0.84 
  -4   2   2  126.03    3.36 
  -4   2   2  124.33    2.90 
  -4   2  -2  122.48    3.03 
  -4   2  -2  127.04    3.26 
  -3   2   2   34.17    1.20 
  -3   2   2   34.27    0.94 
  -3   2  -2   32.85    1.04 
  -3   2  -2   33.25    1.13 
  -2   2   2    2.33    0.29 
  -2   2   2    2.63    0.18 
  -2   2  -2    2.48    0.25 
  -2   2  -2    2.27    0.27 
  -1   2   2  152.77    3.33 
  -1   2   2  148.44    3.68 
  -1   2  -2  148.28    3.43 
  -1   2  -2  150.99    3.70 
   1  -2  -2  153.27    3.33 
   0  -2   2   47.11    1.28 
   0  -2  -2   47.90    1.21 
   1   2   2  148.99    3.74 
  -1  -2   2  151.91    3.41 
  -1  -2  -2  148.01    3.37 
   2   2   2    2.41    0.26 
  -2  -2   2    2.39    0.25 
  -2  -2  -2    2.54    0.26 
   3   2   2   33.00    1.08 
  -3  -2   2   33.15    1.05 
  -3  -2  -2   32.05    0.94 
  -3  -2  -2   34.26    1.07 
  -4  -2   2  122.72    3.25 
  -4  -2   2  123.62    3.03 
   4   2   2  119.15    3.19 
  -4  -2  -2  124.46    3.04 
  -5  -2   2   17.17    0.77 
  -5  -2   2   18.13    0.85 
  -5  -2  -2   17.60    0.79 
  -6  -2   2   60.66    1.98 
  -6  -2   2   61.91    1.83 
  -7  -2   2    0.23    0.13 
  -7  -2   2    0.41    0.21 
  -7  -2  -2    0.17    0.13 
  -8  -2   2   17.85    0.99 
  -8  -2   2   18.14    0.89 
  -8  -2  -2   17.51    0.95 
  -9   2   3    3.00    0.58 
  -8   2   3    3.87    0.62 
  -8   2  -3    3.66    0.50 
  -7   2   3    2.32    0.45 
  -7   2  -3    1.94    0.35 
  -6   2   3    5.43    0.64 
  -6   2  -3    4.49    0.49 
  -5   2   3   47.40    1.75 
  -5   2  -3   48.46    1.64 
  -5   2  -3   47.05    1.55 
  -4   2   3  106.76    2.63 
  -4   2   3  109.47    3.10 
  -4   2  -3  106.76    2.79 
  -4   2  -3  107.71    2.96 
  -3   2   3    3.70    0.28 
  -3   2   3    3.27    0.41 
  -3   2  -3    3.40    0.39 
  -3   2  -3    3.68    0.39 
  -2   2   3   18.49    0.65 
  -2   2   3   17.66    0.82 
  -2   2  -3   17.98    0.81 
  -2   2  -3   17.01    0.73 
  -1   2   3   19.74    0.69 
  -1   2  -3   18.38    0.74 
   0  -2   3    7.65    0.44 
   0  -2  -3    7.82    0.40 
  -1  -2   3   20.12    0.75 
   1   2   3   18.43    0.78 
  -1  -2  -3   18.61    0.71 
  -2  -2   3   18.11    0.73 
   2   2   3   16.95    0.74 
  -2  -2  -3   18.29    0.72 
  -3  -2   3    3.08    0.34 
   3   2   3    2.18    0.30 
  -3  -2  -3    2.77    0.32 
  -4  -2   3  108.00    2.77 
  -4  -2  -3  103.13    2.77 
  -5  -2   3   49.22    1.75 
  -5  -2   3   46.41    1.58 
  -5  -2  -3   49.01    1.61 
  -6  -2   3    5.93    0.66 
  -6  -2   3    6.59    0.61 
  -6  -2  -3    5.79    0.58 
  -7  -2   3    1.77    0.34 
  -7  -2   3    2.10    0.42 
  -7  -2  -3    1.57    0.33 
  -8  -2   3    4.09    0.60 
  -8  -2  -3    3.92    0.53 
  -8   2   4   26.32    1.46 
  -7   2   4    3.47    0.59 
  -7   2  -4    3.75    0.52 
  -6   2   4   15.78    1.00 
  -6   2  -4   15.32    0.87 
  -5   2   4    2.59    0.46 
  -5   2  -4    2.14    0.36 
  -4   2   4   72.55    2.40 
  -4   2  -4   73.40    2.29 
  -4   2  -4   70.62    2.17 
  -3   2   4   23.44    0.89 
  -3   2   4   22.80    1.10 
  -3   2  -4   23.66    1.00 
  -2   2   4    9.72    0.51 
  -2   2   4    9.78    0.65 
  -2   2  -4    9.80    0.59 
  -1   2   4   18.83    0.77 
  -1   2  -4   18.15    0.82 
   0  -2   4   16.27    0.77 
   0  -2  -4   17.32    0.73 
  -1  -2   4   18.41    0.80 
   1   2   4   17.57    0.83 
  -1  -2  -4   17.36    0.76 
  -2  -2   4   11.01    0.61 
  -2  -2  -4   10.41    0.59 
  -3  -2   4   22.10    0.94 
  -3  -2  -4   20.79    0.92 
  -4  -2   4   76.09    2.20 
  -4  -2  -4   71.50    2.19 
  -5  -2   4    3.07    0.50 
  -5  -2   4    2.72    0.45 
  -5  -2  -4    2.55    0.39 
  -6  -2   4   13.62    0.94 
  -6  -2   4   15.65    0.91 
  -6  -2  -4   16.17    0.91 
  -7  -2   4    3.39    0.58 
  -7  -2  -4    3.01    0.48 
  -8  -2   4   23.21    1.33 
  -6   2   5   15.63    1.07 
  -5   2   5    3.34    0.55 
  -5   2  -5    4.26    0.56 
  -4   2   5    9.72    0.77 
  -4   2  -5   11.87    0.77 
  -3   2   5    4.78    0.61 
  -3   2  -5    4.34    0.52 
  -2   2   5   29.74    1.15 
  -2   2   5   31.33    1.39 
  -2   2  -5   35.33    1.34 
   1  -2   5    2.05    0.35 
  -1   2   5    2.24    0.34 
   0   2   5  109.12    2.90 
   0  -2   5  109.86    3.00 
   0  -2  -5  108.51    2.90 
  -1  -2   5    2.02    0.34 
  -1  -2  -5    2.03    0.34 
  -2  -2   5   33.54    1.30 
  -2  -2  -5   32.12    1.27 
  -3  -2   5    5.61    0.59 
  -3  -2  -5    6.05    0.61 
  -4  -2   5   11.12    0.75 
  -4  -2   5   11.62    0.86 
  -4  -2  -5   10.93    0.74 
  -5  -2   5    3.28    0.53 
  -5  -2   5    4.13    0.63 
  -5  -2  -5    3.64    0.50 
  -6  -2   5   13.45    0.99 
  -7  -2   5    3.38    0.62 
  -4   2   6    0.30    0.28 
  -3   2   6    0.08    0.23 
  -2   2   6    4.42    0.64 
   1  -2   6    0.87    0.27 
  -1   2   6    0.80    0.31 
   0   2   6    1.19    0.29 
   0  -2   6    1.17    0.32 
  -1  -2   6    0.62    0.26 
   1   2   6    1.29    0.30 
  -1  -2  -6    0.78    0.26 
  -2  -2   6    4.85    0.59 
  -2  -2  -6    5.02    0.58 
  -3  -2   6   -0.02    0.19 
  -4  -2   6    0.30    0.26 
  -9   3   0    2.17    0.47 
  -8   3   0   12.85    0.85 
  -7   3   0   81.37    2.53 
  -6   3   0   16.34    0.84 
  -6   3   0   16.23    0.66 
  -5   3   0   50.18    1.64 
  -5   3   0   50.94    1.37 
  -4   3   0   80.28    2.28 
  -4   3   0   84.56    1.96 
  -3   3   0    0.44    0.09 
  -3   3   0    0.25    0.13 
  -2   3   0    0.72    0.14 
  -2   3   0    0.59    0.07 
  -1   3   0  460.09   10.55 
   1  -3   0  481.28   10.01 
   0  -3   0   -0.24    0.04 
   0   3   0   -0.06    0.06 
   0   3   0   -0.12    0.05 
   1   3   0  525.39   11.67 
  -1  -3   0  476.23   10.76 
  -2  -3   0    0.59    0.12 
   2   3   0    1.66    0.21 
  -3  -3   0    0.31    0.12 
  -3  -3   0    0.88    0.13 
  -4  -3   0   82.62    2.12 
  -5  -3   0   47.97    1.45 
  -6  -3   0   13.90    0.68 
  -7  -3   0   80.61    2.32 
  -9  -3   0    3.33    0.47 
 -10   3   1    1.56    0.45 
  -9   3   1   10.31    0.82 
  -8   3   1    1.62    0.40 
  -8   3  -1    2.00    0.41 
  -7   3   1   17.11    0.95 
  -7   3  -1   16.17    0.76 
  -7   3  -1   18.01    0.93 
  -6   3   1    8.31    0.61 
  -6   3  -1    8.35    0.48 
  -6   3  -1    8.38    0.58 
  -5   3   1   17.69    0.87 
  -5   3   1   18.07    0.63 
  -5   3  -1   17.78    0.82 
  -5   3  -1   18.83    0.70 
  -4   3   1    2.07    0.30 
  -4   3   1    2.81    0.19 
  -4   3  -1    2.75    0.26 
  -4   3  -1    2.89    0.34 
  -3   3   1  162.49    4.14 
  -3   3   1  169.60    3.61 
  -3   3  -1  165.99    4.11 
  -3   3  -1  172.30    3.74 
  -2   3   1  112.57    2.88 
  -2   3   1  118.70    2.46 
  -2   3  -1  117.25    2.60 
  -2   3  -1  111.39    2.86 
  -1   3   1   39.82    1.12 
  -1   3  -1   39.56    1.00 
   1  -3  -1   39.36    0.88 
  -1   3  -1   38.84    1.14 
   0   3   1    0.02    0.04 
   0  -3   1   -0.01    0.03 
   0   3   1   -0.08    0.04 
   0  -3  -1   -0.02    0.02 
   0   3  -1   -0.03    0.04 
   0   3  -1   -0.01    0.03 
  -1  -3   1   40.00    1.03 
   1   3   1   39.21    1.17 
  -1  -3  -1   37.56    0.99 
  -2  -3   1  113.99    2.65 
   2   3   1  114.18    2.94 
  -2  -3  -1  111.62    2.62 
   3   3   1  160.21    4.07 
  -3  -3   1  158.97    3.71 
  -3  -3  -1  162.92    3.70 
  -4  -3   1    2.25    0.29 
  -4  -3   1    2.76    0.30 
  -4  -3  -1    2.65    0.30 
  -5  -3   1   17.47    0.74 
  -5  -3   1   17.11    0.74 
  -5  -3  -1   17.06    0.75 
  -6  -3   1    7.25    0.49 
  -6  -3   1    8.07    0.51 
  -6  -3  -1    7.56    0.50 
  -7  -3   1   15.86    0.78 
  -7  -3  -1   15.80    0.81 
  -8  -3   1    1.61    0.31 
  -8  -3  -1    1.21    0.28 
  -9  -3   1   10.64    0.72 
  -9  -3  -1   11.50    0.77 
 -10   3   2    0.07    0.31 
  -9   3   2   10.50    0.86 
  -8   3   2    3.24    0.54 
  -8   3  -2    3.70    0.46 
  -7   3   2    9.35    0.73 
  -7   3  -2    8.70    0.58 
  -7   3  -2    8.91    0.67 
  -6   3   2   11.10    0.74 
  -6   3  -2    9.13    0.55 
  -6   3  -2   10.79    0.68 
  -5   3   2   29.77    1.24 
  -5   3  -2   29.94    1.04 
  -5   3  -2   28.78    1.16 
  -4   3   2   45.40    1.58 
  -4   3   2   45.36    1.21 
  -4   3  -2   46.45    1.36 
  -4   3  -2   46.75    1.52 
  -3   3   2  102.79    2.37 
  -3   3   2  107.96    2.85 
  -3   3  -2  102.92    2.54 
  -3   3  -2  103.81    2.79 
  -2   3   2   59.60    1.75 
  -2   3   2   59.43    1.42 
  -2   3  -2   59.83    1.75 
  -2   3  -2   61.38    1.59 
  -1   3   2   45.80    1.33 
  -1   3  -2   43.69    1.22 
  -1   3  -2   42.81    1.34 
   0  -3   2   -0.04    0.07 
   0   3   2   -0.13    0.05 
   0  -3  -2   -0.08    0.05 
   1   3   2   44.23    1.38 
  -1  -3   2   44.91    1.24 
  -1  -3  -2   44.38    1.19 
   2   3   2   60.72    1.77 
  -2  -3   2   59.41    1.60 
  -2  -3  -2   59.48    1.58 
   3   3   2  103.47    2.83 
  -3  -3   2  110.62    2.65 
  -3  -3  -2  102.74    2.61 
   4   3   2   44.36    1.44 
  -4  -3   2   44.16    1.40 
  -4  -3  -2   44.17    1.38 
  -5  -3   2   27.68    1.06 
  -5  -3   2   28.19    1.11 
  -6  -3   2   10.91    0.67 
  -6  -3   2   10.32    0.62 
  -6  -3  -2    9.67    0.62 
  -7  -3   2    8.01    0.56 
  -7  -3   2    8.11    0.62 
  -7  -3  -2    7.61    0.69 
  -8  -3   2    3.60    0.46 
  -8  -3  -2    3.83    0.50 
  -9  -3   2    9.92    0.69 
  -9   3   3    2.75    0.59 
  -8   3   3    0.27    0.26 
  -8   3  -3    0.24    0.17 
  -7   3   3   16.99    1.07 
  -7   3  -3   19.59    0.95 
  -6   3   3   28.38    1.35 
  -6   3  -3   27.87    1.13 
  -6   3  -3   29.44    1.26 
  -5   3   3   47.05    1.76 
  -5   3  -3   45.76    1.52 
  -5   3  -3   45.97    1.65 
  -4   3   3   69.72    2.23 
  -4   3  -3   68.62    1.98 
  -4   3  -3   70.25    2.16 
  -3   3   3   78.10    1.95 
  -3   3   3   78.33    2.37 
  -3   3  -3   80.61    2.16 
  -3   3  -3   79.46    2.33 
  -2   3   3   19.83    0.67 
  -2   3  -3   19.59    0.80 
  -2   3  -3   20.32    0.89 
  -1   3   3  115.24    3.04 
  -1   3  -3  115.20    2.85 
   1  -3  -3  115.53    2.71 
   0  -3   3    0.02    0.07 
   0  -3  -3    0.00    0.06 
  -1  -3   3  113.36    2.82 
   1   3   3  115.25    3.10 
  -1  -3  -3  112.82    2.75 
  -2  -3   3   19.68    0.80 
   2   3   3   19.77    0.85 
  -2  -3  -3   20.26    0.78 
   3   3   3   80.23    2.33 
  -3  -3   3   78.26    2.17 
  -3  -3  -3   80.54    2.17 
   4   3   3   71.77    2.13 
  -4  -3   3   70.62    2.07 
  -4  -3  -3   70.78    2.05 
  -5  -3   3   45.49    1.58 
  -5  -3   3   46.17    1.70 
  -5  -3  -3   46.63    1.57 
  -6  -3   3   25.21    1.19 
  -6  -3   3   26.28    1.14 
  -6  -3  -3   26.03    1.14 
  -7  -3   3   17.11    0.99 
  -7  -3   3   16.89    0.91 
  -7  -3  -3   17.43    0.95 
  -8  -3   3    0.26    0.16 
  -8  -3   3   -0.01    0.22 
  -8  -3  -3    0.04    0.15 
  -8   3   4    8.39    0.97 
  -7   3   4    1.56    0.40 
  -7   3  -4    2.04    0.40 
  -6   3   4    2.29    0.47 
  -6   3  -4    2.47    0.41 
  -5   3   4    4.19    0.58 
  -5   3  -4    5.48    0.62 
  -5   3  -4    5.49    0.57 
  -4   3   4    1.01    0.30 
  -4   3  -4    0.90    0.29 
  -4   3  -4    0.90    0.24 
  -3   3   4   21.76    1.06 
  -3   3  -4   21.97    0.98 
  -2   3   4   36.09    1.41 
  -2   3   4   37.42    1.17 
  -2   3  -4   38.51    1.34 
  -1   3   4    7.45    0.55 
  -1   3   4    9.12    0.50 
   1  -3   4    7.46    0.51 
   0  -3   4    0.05    0.09 
   0  -3  -4   -0.02    0.07 
   1   3   4    8.59    0.58 
  -1  -3   4    7.78    0.51 
  -1  -3  -4    8.50    0.50 
  -2  -3   4   37.41    1.32 
  -2  -3  -4   37.90    1.29 
  -3  -3   4   22.98    0.99 
  -3  -3  -4   22.43    0.96 
  -4  -3   4    1.25    0.31 
  -4  -3  -4    1.22    0.27 
  -5  -3   4    4.48    0.55 
  -5  -3   4    6.26    0.72 
  -5  -3  -4    4.95    0.55 
  -6  -3   4    1.36    0.38 
  -6  -3   4    1.99    0.44 
  -6  -3  -4    2.62    0.43 
  -7  -3   4    1.94    0.42 
  -7  -3   4    2.72    0.53 
  -8  -3   4    6.08    0.79 
  -6   3   5    0.36    0.28 
  -5   3   5    3.35    0.57 
  -5   3  -5    3.78    0.53 
  -4   3   5    0.49    0.25 
  -4   3  -5    0.43    0.21 
  -3   3   5   18.70    1.03 
  -3   3  -5   16.22    0.91 
  -2   3   5   18.88    1.02 
  -2   3  -5   19.05    0.96 
  -1   3   5   14.71    0.87 
   1  -3   5   14.45    0.82 
  -1   3   5   15.54    0.75 
   0  -3   5    0.11    0.13 
   0  -3  -5    0.13    0.13 
  -1  -3   5   13.89    0.79 
  -1  -3  -5   15.04    0.76 
  -2  -3   5   18.73    0.94 
  -2  -3  -5   17.77    0.88 
  -3  -3   5   16.99    0.91 
  -3  -3  -5   16.59    0.88 
  -4  -3   5    0.27    0.23 
  -4  -3  -5    0.32    0.20 
  -5  -3   5    3.48    0.56 
  -5  -3   5    3.15    0.57 
  -5  -3  -5    3.29    0.50 
  -6  -3   5    0.13    0.26 
  -6  -3   5    0.17    0.32 
  -7  -3   5    3.75    0.67 
  -4   3   6    4.85    0.70 
  -3   3   6    5.58    0.71 
  -2   3   6    7.61    0.82 
   1  -3   6   22.24    1.15 
  -1   3   6   27.03    1.33 
   0  -3   6    0.09    0.17 
   0   3   6    0.01    0.15 
  -1  -3   6   24.44    1.19 
  -1  -3  -6   25.23    1.14 
  -2  -3   6    6.92    0.71 
  -2  -3  -6    7.06    0.69 
  -9   4   0   -0.08    0.22 
  -8   4   0   26.19    1.29 
  -7   4   0    5.58    0.63 
  -6   4   0    9.31    0.64 
  -5   4   0  143.94    3.27 
  -5   4   0  143.78    3.80 
  -4   4   0  118.73    3.15 
  -4   4   0  118.87    2.67 
  -3   4   0   60.33    1.40 
  -3   4   0   60.82    1.76 
  -2   4   0    2.98    0.13 
  -2   4   0    3.10    0.26 
  -1   4   0    1.02    0.15 
   1  -4   0    1.20    0.08 
  -1   4   0    1.35    0.17 
   0  -4   0  401.78    9.33 
   0   4   0  431.90    9.54 
   0   4   0  443.47    9.98 
   1   4   0    1.49    0.14 
   1   4   0    1.25    0.19 
  -1  -4   0    1.44    0.17 
  -2  -4   0    2.84    0.22 
   2   4   0    2.95    0.31 
  -3  -4   0   60.99    1.49 
  -3  -4   0   59.85    1.58 
   3   4   0   57.02    1.75 
  -4  -4   0  112.46    2.78 
  -4  -4   0  112.74    2.71 
  -5  -4   0  136.92    3.36 
  -6  -4   0    7.23    0.49 
  -7  -4   0    6.20    0.57 
  -8  -4   0   24.87    1.11 
  -9  -4   0   -0.03    0.14 
 -10   4   1    5.51    0.79 
  -9   4   1    8.22    0.88 
  -8   4   1   43.49    1.78 
  -8   4  -1   43.66    1.74 
  -7   4   1   12.85    0.85 
  -7   4  -1   11.42    0.78 
  -6   4   1   57.78    1.96 
  -6   4  -1   56.15    1.60 
  -6   4  -1   56.43    1.91 
  -5   4   1    1.20    0.26 
  -5   4  -1    1.29    0.20 
  -5   4  -1    1.27    0.26 
  -4   4   1   49.50    1.61 
  -4   4   1   48.56    1.18 
  -4   4  -1   47.53    1.31 
  -4   4  -1   49.51    1.58 
  -3   4   1  111.81    2.97 
  -3   4   1  112.58    2.41 
  -3   4  -1  111.61    2.94 
  -3   4  -1  113.76    2.59 
  -2   4   1   14.67    0.64 
  -2   4  -1   15.86    0.51 
  -2   4  -1   14.95    0.64 
  -2   4  -1   16.15    0.52 
  -1   4   1  115.72    2.88 
   1  -4   1  117.58    2.65 
  -1   4  -1  122.27    2.86 
   1  -4  -1  116.76    2.48 
  -1   4  -1  115.34    2.93 
   0   4   1  350.54    8.05 
   0  -4   1  321.22    7.15 
   0   4   1  340.32    7.59 
   0   4  -1  341.62    7.70 
   0   4  -1  327.77    7.87 
   1   4   1  111.23    2.96 
  -1  -4   1  112.76    2.62 
  -1  -4  -1  114.85    2.57 
   1   4  -1  115.61    2.87 
   2   4   1   14.85    0.66 
  -2  -4   1   15.01    0.61 
  -2  -4  -1   14.65    0.55 
  -3  -4   1  105.89    2.63 
   3   4   1  105.62    2.88 
  -3  -4  -1  107.45    2.59 
  -4  -4   1   46.45    1.40 
   4   4   1   47.48    1.55 
  -4  -4   1   47.55    1.42 
  -4  -4  -1   46.12    1.40 
  -5  -4   1    1.17    0.23 
  -5  -4   1    0.72    0.18 
  -5  -4  -1    0.82    0.20 
  -6  -4   1   50.95    1.62 
  -7  -4   1   10.40    0.64 
  -7  -4  -1   11.32    0.68 
  -8  -4   1   38.81    1.47 
  -8  -4  -1   40.76    1.53 
  -9  -4   1    7.19    0.67 
  -9  -4  -1    7.38    0.70 
  -9   4   2    2.95    0.56 
  -8   4   2    3.48    0.58 
  -8   4  -2    3.91    0.58 
  -7   4   2    6.06    0.71 
  -7   4  -2    7.21    0.74 
  -7   4  -2    6.34    0.48 
  -6   4   2    3.88    0.54 
  -6   4  -2    4.24    0.42 
  -6   4  -2    4.49    0.54 
  -5   4   2   22.98    1.08 
  -5   4  -2   20.44    0.83 
  -5   4  -2   22.40    1.02 
  -4   4   2   39.32    1.43 
  -4   4  -2   36.01    1.35 
  -4   4  -2   38.81    1.19 
  -3   4   2    8.16    0.53 
  -3   4   2    7.80    0.32 
  -3   4  -2    8.11    0.43 
  -3   4  -2    8.31    0.52 
  -2   4   2  150.74    3.86 
  -2   4   2  153.29    3.31 
  -2   4  -2  150.65    3.87 
  -2   4  -2  158.35    3.55 
  -1   4   2   24.32    0.87 
   1  -4   2   23.99    0.80 
  -1   4  -2   23.45    0.90 
   0  -4   2  184.82    4.21 
   0   4   2  191.32    4.42 
   0   4   2  189.93    4.74 
   0   4  -2  182.43    4.55 
   0  -4  -2  184.69    4.07 
  -1  -4   2   24.84    0.83 
   1   4   2   25.02    0.95 
   1   4   2   24.12    0.74 
  -1  -4  -2   24.29    0.76 
   2   4   2  154.18    3.54 
   2   4   2  155.45    4.02 
  -2  -4   2  151.48    3.60 
  -2  -4  -2  156.06    3.57 
   3   4   2    7.99    0.51 
  -3  -4   2    7.29    0.47 
   4   4   2   37.05    1.34 
  -4  -4   2   38.64    1.30 
  -4  -4  -2   37.30    1.25 
  -5  -4   2   22.15    0.96 
   5   4   2   22.64    0.98 
  -5  -4   2   19.63    0.91 
  -5  -4  -2   21.22    0.92 
  -6  -4   2    3.54    0.44 
  -6  -4   2    4.34    0.50 
  -6  -4  -2    3.69    0.44 
  -7  -4   2    5.17    0.53 
  -7  -4  -2    6.71    0.64 
  -8  -4   2    2.85    0.41 
  -8  -4  -2    2.58    0.44 
  -9  -4   2    1.98    0.36 
  -9   4   3    4.14    0.69 
  -8   4   3    2.36    0.53 
  -8   4  -3    2.80    0.43 
  -7   4   3    0.18    0.24 
  -7   4  -3    1.05    0.34 
  -7   4  -3    1.15    0.27 
  -6   4   3   26.60    1.31 
  -6   4  -3   26.17    1.22 
  -6   4  -3   24.29    1.05 
  -5   4   3    6.39    0.68 
  -5   4  -3    6.31    0.47 
  -5   4  -3    7.03    0.57 
  -4   4   3   42.56    1.59 
  -4   4  -3   41.47    1.53 
  -4   4  -3   39.38    1.35 
  -3   4   3    0.80    0.23 
  -3   4  -3    0.32    0.13 
  -3   4  -3    0.87    0.23 
  -2   4   3   54.33    1.73 
  -2   4   3   53.02    1.39 
  -2   4  -3   55.85    1.60 
  -2   4  -3   53.10    1.76 
   1  -4   3    0.88    0.19 
  -1   4   3    1.11    0.22 
  -1   4  -3    0.94    0.23 
   1  -4  -3    1.20    0.17 
   0   4   3    9.82    0.60 
   0  -4   3   10.36    0.53 
   0   4   3    9.96    0.52 
   0  -4  -3    9.20    0.44 
   1   4   3    1.33    0.26 
   1   4   3    1.04    0.19 
  -1  -4   3    0.94    0.19 
  -1  -4  -3    0.85    0.17 
  -2  -4   3   55.50    1.64 
   2   4   3   55.43    1.79 
  -2  -4  -3   53.72    1.57 
   3   4   3    0.51    0.19 
  -3  -4   3    0.60    0.19 
  -3  -4  -3    0.48    0.15 
  -4  -4   3   41.13    1.44 
   4   4   3   41.33    1.47 
  -4  -4  -3   39.51    1.37 
  -5  -4   3    6.36    0.64 
  -5  -4   3    6.44    0.64 
  -5  -4  -3    5.89    0.56 
  -6  -4   3   24.24    1.15 
  -6  -4   3   23.03    1.09 
  -6  -4  -3   23.05    1.08 
  -7  -4   3    2.07    0.39 
  -7  -4   3    1.13    0.32 
  -7  -4  -3    0.88    0.26 
  -8  -4   3    2.45    0.40 
  -8   4   4    0.74    0.36 
  -7   4   4    2.15    0.50 
  -7   4  -4    2.23    0.40 
  -6   4   4   19.20    1.16 
  -6   4  -4   20.61    1.03 
  -5   4   4    4.86    0.62 
  -5   4  -4    4.59    0.52 
  -5   4  -4    5.09    0.63 
  -4   4   4    9.03    0.70 
  -4   4  -4   10.55    0.75 
  -4   4  -4    9.75    0.64 
  -3   4   4    5.78    0.62 
  -3   4  -4    6.00    0.56 
  -3   4  -4    5.71    0.62 
  -2   4   4  118.49    3.30 
  -2   4  -4  115.82    3.08 
  -1   4   4    0.42    0.14 
  -1   4   4    0.32    0.16 
   1  -4   4    0.58    0.19 
   0  -4   4   91.64    2.56 
   0   4   4   97.69    2.67 
   0   4   4   95.54    2.85 
   0  -4  -4   94.04    2.43 
  -1  -4   4    0.42    0.18 
   1   4   4    0.83    0.25 
  -1  -4  -4    0.44    0.15 
   2   4   4  118.46    3.33 
  -2  -4   4  114.29    3.06 
  -2  -4  -4  116.02    2.99 
  -3  -4   4    7.11    0.54 
  -3  -4  -4    6.63    0.49 
  -4  -4   4    9.70    0.68 
  -4  -4  -4    9.97    0.65 
  -5  -4   4    4.69    0.59 
  -5  -4   4    5.61    0.67 
  -5  -4  -4    4.63    0.54 
  -6  -4   4   22.00    1.20 
  -6  -4   4   21.11    1.12 
  -6  -4  -4   20.25    1.07 
  -7  -4   4    1.55    0.42 
  -7  -4   4    1.81    0.42 
  -8  -4   4    0.04    0.29 
  -6   4   5    4.94    0.70 
  -5   4   5    0.02    0.19 
  -5   4  -5   -0.13    0.13 
  -4   4   5    9.73    0.78 
  -4   4  -5    7.94    0.73 
  -3   4   5    4.25    0.59 
  -3   4  -5    5.30    0.59 
  -2   4   5    6.12    0.66 
   2  -4   5    5.65    0.59 
  -1   4   5    6.10    0.64 
   1  -4   5    4.68    0.53 
   0  -4   5   19.46    0.98 
   0   4   5   22.16    1.12 
   0  -4  -5   20.28    0.89 
  -1  -4   5    5.09    0.55 
  -1  -4  -5    5.64    0.53 
  -2  -4   5    4.93    0.55 
  -2  -4  -5    5.69    0.55 
  -3  -4   5    4.70    0.57 
  -3  -4  -5    5.31    0.57 
  -4  -4   5   10.00    0.76 
  -4  -4  -5   10.16    0.72 
  -5  -4   5   -0.21    0.26 
  -5  -4   5    0.15    0.24 
  -5  -4  -5   -0.02    0.14 
  -6  -4   5    5.04    0.74 
  -4   4   6    2.64    0.54 
  -3   4   6    0.20    0.26 
  -2   4   6    6.13    0.73 
  -2  -4  -6    5.26    0.59 
 -10   5   0    0.40    0.37 
  -9   5   0    5.27    0.72 
  -8   5   0    5.37    0.68 
  -7   5   0   20.63    1.09 
  -6   5   0    0.18    0.16 
  -5   5   0   11.28    0.69 
  -4   5   0    0.20    0.12 
  -4   5   0    0.20    0.07 
  -3   5   0    0.20    0.13 
  -3   5   0    0.24    0.07 
   2  -5   0   89.99    1.97 
  -2   5   0   91.84    2.40 
  -1   5   0    4.35    0.30 
   1  -5   0    4.59    0.19 
  -1   5   0    4.52    0.29 
   0  -5   0   -0.10    0.06 
   0   5   0    0.03    0.07 
   0   5   0   -0.19    0.04 
   1   5   0    3.61    0.22 
  -1  -5   0    4.66    0.27 
   1   5   0    4.48    0.33 
  -2  -5   0   91.40    2.20 
   2   5   0   89.56    2.48 
   3   5   0    0.16    0.13 
  -3  -5   0    0.05    0.09 
  -4  -5   0    0.21    0.10 
  -5  -5   0   11.56    0.61 
  -6  -5   0    0.33    0.15 
  -7  -5   0   16.03    0.82 
  -8  -5   0    5.29    0.57 
  -9  -5   0    3.54    0.50 
 -10   5   1    0.80    0.40 
  -9   5   1   18.05    1.16 
  -9   5  -1   18.65    1.16 
  -8   5   1    0.21    0.23 
  -8   5  -1    0.18    0.23 
  -7   5   1   30.95    1.40 
  -7   5  -1   29.21    1.35 
  -6   5   1   15.58    0.91 
  -6   5  -1   16.85    0.92 
  -5   5   1   55.45    1.87 
  -5   5  -1   53.71    1.83 
  -5   5  -1   55.11    1.49 
  -4   5   1   40.89    1.43 
  -4   5  -1   40.10    1.12 
  -4   5  -1   39.11    1.41 
  -3   5   1   46.51    1.48 
  -3   5  -1   45.12    1.20 
  -3   5  -1   44.99    1.47 
  -2   5   1   67.97    1.92 
  -2   5  -1   69.11    1.66 
  -2   5  -1   69.13    1.95 
  -2   5  -1   69.01    1.80 
  -1   5   1  154.81    3.72 
   1  -5   1  153.80    3.42 
   1  -5  -1  155.64    3.24 
  -1   5  -1  152.66    3.79 
   0   5   1   -0.09    0.05 
   0   5   1    0.01    0.09 
   0  -5   1    0.07    0.06 
   0   5  -1    0.04    0.07 
   0   5  -1   -0.09    0.06 
   0  -5  -1   -0.08    0.03 
   1   5   1  156.82    3.53 
  -1  -5   1  153.10    3.51 
   1   5   1  154.35    3.98 
   1   5  -1  155.71    3.74 
   1   5  -1  153.55    3.86 
  -1  -5  -1  154.35    3.44 
  -2  -5   1   70.55    1.86 
   2   5   1   71.54    2.09 
  -2  -5  -1   71.32    1.81 
   3   5   1   45.52    1.51 
  -3  -5   1   45.90    1.38 
  -3  -5  -1   45.58    1.34 
   4   5   1   39.38    1.42 
  -4  -5   1   41.22    1.31 
  -4  -5  -1   40.38    1.29 
  -5  -5   1   51.09    1.52 
  -5  -5   1   50.22    1.58 
  -5  -5  -1   49.48    1.57 
  -6  -5   1   12.92    0.70 
  -6  -5  -1   12.86    0.71 
  -7  -5   1   28.94    1.18 
  -7  -5  -1   27.73    1.17 
  -8  -5   1    0.04    0.14 
  -8  -5  -1    0.30    0.17 
  -9   5   2    9.53    1.02 
  -8   5   2    1.30    0.39 
  -8   5  -2    1.64    0.42 
  -7   5   2   26.78    1.35 
  -7   5  -2   28.37    1.33 
  -6   5   2    7.85    0.79 
  -6   5  -2    8.04    0.50 
  -6   5  -2    7.91    0.76 
  -5   5   2   56.53    1.98 
  -5   5  -2   57.10    1.64 
  -5   5  -2   57.12    1.94 
  -4   5   2   24.21    1.09 
  -4   5  -2   23.86    0.87 
  -4   5  -2   25.81    1.09 
  -3   5   2   90.43    2.55 
  -3   5  -2   88.54    2.23 
  -3   5  -2   85.34    2.52 
  -2   5   2   48.64    1.14 
  -2   5   2   49.00    1.55 
  -2   5  -2   50.55    1.60 
  -2   5  -2   50.00    1.38 
  -1   5   2  293.65    7.10 
   1  -5   2  309.01    6.68 
   1  -5  -2  306.99    6.44 
  -1   5  -2  308.63    7.23 
   0  -5   2   -0.02    0.06 
   0   5   2   -0.04    0.08 
   0   5   2   -0.03    0.06 
   0   5  -2   -0.08    0.07 
   0  -5  -2    0.01    0.04 
   1   5   2  305.14    7.42 
  -1  -5   2  299.32    6.63 
   1   5   2  294.63    6.83 
  -1  -5  -2  305.68    6.53 
  -2  -5   2   49.25    1.47 
   2   5   2   51.56    1.68 
  -2  -5  -2   51.48    1.42 
   3   5   2   87.85    2.60 
  -3  -5   2   86.57    2.36 
  -3  -5  -2   91.05    2.31 
  -4  -5   2   23.43    1.00 
   4   5   2   24.55    1.04 
  -4  -5  -2   23.57    0.94 
   5   5   2   54.60    1.86 
  -5  -5   2   53.88    1.74 
  -5  -5   2   55.39    1.77 
  -5  -5  -2   53.39    1.71 
  -6  -5   2    6.02    0.59 
  -6  -5   2    6.97    0.54 
  -6  -5  -2    7.65    0.56 
  -7  -5   2   24.85    1.10 
  -7  -5  -2   24.05    1.13 
  -8  -5   2    1.72    0.34 
  -8  -5  -2    1.86    0.38 
  -8   5   3    0.56    0.31 
  -7   5   3    0.71    0.31 
  -7   5  -3    0.07    0.22 
  -7   5  -3    0.24    0.17 
  -6   5   3    1.15    0.33 
  -6   5  -3    1.22    0.34 
  -6   5  -3    1.55    0.30 
  -5   5   3    6.22    0.69 
  -5   5  -3    7.07    0.70 
  -5   5  -3    5.90    0.46 
  -4   5   3    0.37    0.19 
  -4   5  -3    0.19    0.15 
  -4   5  -3    0.28    0.14 
  -3   5   3   68.25    2.17 
  -3   5  -3   69.65    1.95 
  -3   5  -3   67.34    2.18 
  -2   5   3   13.09    0.71 
  -2   5  -3   12.00    0.72 
  -2   5  -3   12.98    0.63 
  -1   5   3   32.30    1.18 
   1  -5   3   31.75    1.13 
  -1   5  -3   36.29    1.33 
   1  -5  -3   33.59    0.96 
   0  -5   3    0.09    0.09 
   0   5   3    0.03    0.10 
   0   5   3   -0.04    0.11 
   0  -5  -3    0.06    0.08 
  -1  -5   3   33.01    1.14 
   1   5   3   32.38    1.05 
   1   5   3   33.22    1.30 
  -1  -5  -3   34.46    1.05 
  -2  -5   3   13.42    0.67 
   2   5   3   12.87    0.75 
  -2  -5  -3   12.42    0.60 
  -3  -5   3   67.37    2.01 
   3   5   3   67.75    2.19 
  -3  -5  -3   70.54    1.96 
  -4  -5   3    0.31    0.22 
   4   5   3    0.31    0.19 
  -4  -5  -3    0.30    0.16 
   5   5   3    5.20    0.57 
  -5  -5   3    5.56    0.60 
  -5  -5  -3    6.39    0.59 
  -6  -5   3    1.16    0.33 
  -6  -5   3    2.10    0.41 
  -6  -5  -3    2.03    0.38 
  -7  -5   3    0.17    0.20 
  -7  -5   3    0.47    0.25 
  -7  -5  -3    0.47    0.22 
  -8  -5   3    0.49    0.20 
  -7   5   4    0.59    0.31 
  -7   5  -4    0.83    0.27 
  -6   5   4    0.78    0.31 
  -6   5  -4    1.52    0.41 
  -6   5  -4    1.38    0.31 
  -5   5   4    5.80    0.71 
  -5   5  -4    7.08    0.76 
  -5   5  -4    6.28    0.61 
  -4   5   4    5.79    0.67 
  -4   5  -4    5.72    0.66 
  -4   5  -4    5.34    0.54 
  -3   5   4   40.53    1.57 
  -3   5  -4   39.13    1.42 
  -3   5  -4   39.38    1.61 
  -2   5   4    6.39    0.62 
   2  -5   4    5.40    0.53 
  -1   5   4   12.84    0.73 
   1  -5   4   12.83    0.70 
   0   5   4    0.01    0.11 
   0   5   4   -0.13    0.12 
   0  -5   4    0.06    0.10 
   0  -5  -4   -0.04    0.09 
   1   5   4   11.89    0.77 
  -1  -5   4   12.53    0.69 
  -1  -5  -4   11.63    0.59 
  -2  -5   4    5.87    0.56 
   2   5   4    7.68    0.61 
  -2  -5  -4    6.73    0.46 
  -3  -5   4   41.16    1.47 
  -3  -5  -4   37.78    1.37 
  -4  -5   4    4.75    0.58 
  -4  -5  -4    6.26    0.59 
  -5  -5   4    7.61    0.77 
  -5  -5  -4    6.82    0.68 
  -6  -5   4    1.35    0.39 
  -6  -5   4    1.14    0.38 
  -6  -5  -4    1.21    0.32 
  -6   5   5    2.46    0.51 
  -5   5   5   15.31    1.03 
  -4   5   5    1.77    0.41 
  -4   5  -5    1.89    0.37 
   3  -5   5    5.70    0.61 
  -3   5   5    5.33    0.65 
  -3   5  -5    5.99    0.62 
  -2   5   5    3.50    0.51 
   2  -5   5    3.84    0.50 
   1  -5   5   48.86    1.73 
  -1   5   5   47.91    1.76 
   0  -5   5    0.37    0.19 
   0   5   5    0.04    0.17 
  -1  -5   5   51.49    1.80 
  -1  -5  -5   50.84    1.65 
  -2  -5   5    3.64    0.49 
  -2  -5  -5    4.10    0.47 
  -3  -5   5    6.24    0.66 
  -3  -5  -5    6.50    0.63 
  -4  -5   5    1.33    0.38 
  -4  -5  -5    1.81    0.36 
  -5  -5   5   19.35    1.15 
  -6  -5   5    3.29    0.63 
  -4   5   6    0.38    0.30 
  -3   5   6   11.53    0.88 
  -2   5   6    2.61    0.50 
 -10   6   0   37.09    1.80 
  -9   6   0    7.22    0.86 
  -8   6   0   37.50    1.66 
  -7   6   0    1.27    0.35 
  -6   6   0  118.51    3.44 
  -5   6   0    0.33    0.18 
  -4   6   0   51.14    1.71 
  -3   6   0   54.20    1.69 
   2  -6   0   65.40    1.46 
  -2   6   0   64.59    1.87 
   1  -6   0   47.49    1.13 
  -1   6   0   48.14    1.46 
  -1   6   0   45.86    1.38 
   0   6   0  150.03    3.59 
   0  -6   0  151.07    3.33 
   0   6   0  148.42    3.83 
   1   6   0   49.05    1.53 
   1   6   0   48.83    1.30 
  -1  -6   0   47.50    1.28 
  -2  -6   0   65.89    1.74 
   2   6   0   68.33    2.01 
   3   6   0   52.88    1.71 
  -3  -6   0   53.38    1.51 
  -4  -6   0   43.36    1.39 
   4   6   0   45.89    1.57 
  -5  -6   0    0.15    0.12 
  -6  -6   0  111.03    2.98 
  -7  -6   0    1.36    0.29 
  -8  -6   0   34.16    1.41 
  -9   6   1    0.07    0.28 
  -9   6  -1    0.19    0.30 
  -8   6   1   14.68    1.01 
  -8   6  -1   16.73    1.06 
  -7   6   1    6.36    0.73 
  -7   6  -1    7.77    0.79 
  -6   6   1   43.43    1.72 
  -6   6  -1   46.01    1.73 
  -5   6   1   22.83    1.10 
  -5   6  -1   22.33    1.06 
  -4   6   1   24.24    1.08 
  -4   6  -1   26.42    1.10 
  -4   6  -1   25.92    0.81 
  -3   6   1    2.10    0.33 
  -3   6  -1    2.73    0.36 
  -3   6  -1    1.39    0.21 
  -3   6  -1    2.75    0.21 
  -2   6   1  152.26    3.78 
   2  -6   1  150.91    3.36 
  -2   6  -1  144.87    3.78 
  -1   6   1    6.27    0.38 
   1  -6   1    6.17    0.31 
  -1   6   1    6.24    0.44 
   1  -6  -1    6.45    0.20 
  -1   6  -1    7.08    0.43 
  -1   6  -1    4.86    0.32 
   0   6   1  134.01    3.19 
   0  -6   1  131.90    3.03 
   0   6   1  130.45    3.52 
   0   6  -1  132.02    3.35 
  -1  -6   1    6.31    0.37 
   1   6   1    6.25    0.45 
   1   6   1    6.74    0.28 
  -1  -6  -1    6.20    0.32 
   1   6  -1    6.04    0.37 
   1   6  -1    6.35    0.40 
  -2  -6   1  150.44    3.49 
   2   6   1  145.54    3.90 
   2   6  -1  143.11    3.81 
  -2  -6  -1  147.80    3.40 
  -3  -6   1    2.66    0.33 
   3   6   1    1.80    0.30 
  -3  -6  -1    1.91    0.25 
  -4  -6   1   25.77    0.99 
   4   6   1   25.37    1.09 
  -4  -6  -1   25.95    0.98 
   5   6   1   21.62    1.02 
  -5  -6   1   21.09    0.92 
  -5  -6  -1   21.38    0.91 
  -6  -6   1   41.09    1.43 
  -6  -6  -1   37.92    1.40 
  -7  -6   1    5.11    0.54 
  -7  -6  -1    5.89    0.60 
  -8  -6   1   14.61    0.85 
  -8  -6  -1   14.59    0.85 
  -9   6   2    3.34    0.63 
  -9   6  -2    3.86    0.68 
  -8   6   2    9.69    0.99 
  -8   6  -2   10.08    0.98 
  -7   6   2    4.28    0.62 
  -7   6  -2    3.40    0.54 
  -6   6   2   10.10    0.76 
  -6   6  -2    8.40    0.69 
  -5   6   2    0.50    0.21 
  -5   6  -2    0.21    0.17 
  -5   6  -2    0.56    0.16 
  -4   6   2   30.62    1.30 
  -4   6  -2   33.26    1.07 
  -4   6  -2   32.75    1.32 
  -3   6   2    4.41    0.48 
  -3   6  -2    4.49    0.49 
  -3   6  -2    3.99    0.30 
  -2   6   2   30.42    1.10 
   2  -6   2   29.76    0.97 
  -2   6  -2   25.97    1.09 
   1  -6   2   16.86    0.66 
  -1   6   2   15.50    0.69 
   1  -6  -2   17.84    0.50 
  -1   6  -2   16.35    0.78 
   0   6   2   11.15    0.65 
   0  -6   2   12.26    0.54 
   0   6   2   11.63    0.51 
   0   6  -2    9.17    0.56 
   1   6   2   16.55    0.82 
  -1  -6   2   16.45    0.69 
   1   6   2   16.72    0.58 
  -1  -6  -2   17.29    0.62 
  -2  -6   2   28.29    1.00 
   2   6   2   27.62    1.14 
  -2  -6  -2   25.90    0.90 
   3   6   2    3.73    0.46 
  -3  -6   2    3.79    0.42 
  -3  -6  -2    3.68    0.37 
  -4  -6   2   30.07    1.19 
   4   6   2   30.35    1.25 
   5   6   2    0.43    0.21 
  -5  -6   2    0.06    0.18 
  -5  -6  -2    0.84    0.22 
  -6  -6   2    9.00    0.64 
  -6  -6  -2    7.46    0.57 
  -7  -6   2    4.46    0.53 
  -7  -6  -2    3.96    0.51 
  -8  -6   2    9.30    0.69 
  -8  -6  -2    8.19    0.78 
  -8   6   3    3.58    0.64 
  -8   6  -3    3.77    0.66 
  -7   6   3    0.01    0.23 
  -7   6  -3   -0.13    0.20 
  -6   6   3    1.06    0.32 
  -6   6  -3    0.71    0.29 
  -6   6  -3    0.97    0.25 
  -5   6   3   15.50    0.95 
  -5   6  -3   14.45    0.74 
  -5   6  -3   14.54    0.91 
  -4   6   3   69.26    2.29 
  -4   6  -3   66.75    1.96 
  -3   6   3    1.89    0.34 
  -3   6  -3    1.39    0.32 
  -3   6  -3    2.00    0.29 
  -2   6   3  111.18    3.03 
   2  -6   3  111.03    2.83 
  -2   6  -3  103.07    3.08 
  -1   6   3   23.41    0.96 
   1  -6   3   23.59    0.92 
  -1   6  -3   24.05    1.07 
   0   6   3  210.45    5.14 
   0   6   3  217.14    5.63 
   0  -6   3  210.69    4.98 
   0  -6  -3  216.97    4.75 
   1   6   3   24.80    1.11 
  -1  -6   3   23.24    0.93 
  -1  -6  -3   21.82    0.80 
   2   6   3  111.95    3.19 
  -2  -6   3  102.65    2.80 
  -2  -6  -3  106.58    2.70 
  -3  -6   3    1.52    0.31 
   3   6   3    1.70    0.34 
  -3  -6  -3    1.34    0.24 
  -4  -6   3   68.67    2.13 
   4   6   3   65.89    2.23 
  -4  -6  -3   68.14    2.03 
   5   6   3   14.49    0.87 
  -5  -6   3   13.70    0.86 
  -5  -6  -3   13.94    0.78 
  -6  -6   3    0.67    0.27 
  -6  -6   3    1.09    0.32 
  -6  -6  -3    0.63    0.23 
  -7  -6   3    0.06    0.18 
  -7  -6  -3    0.03    0.15 
  -7   6   4    2.02    0.50 
  -7   6  -4    1.71    0.48 
  -6   6   4   10.10    1.00 
  -6   6  -4    8.95    0.66 
  -6   6  -4    9.87    0.96 
  -5   6   4    8.36    0.85 
  -5   6  -4    6.92    0.78 
  -5   6  -4    9.14    0.64 
  -4   6   4   30.64    1.40 
  -4   6  -4   28.11    1.38 
  -4   6  -4   30.02    1.23 
  -3   6   4    1.76    0.36 
   3  -6   4    1.64    0.31 
  -3   6  -4    2.05    0.41 
  -3   6  -4    2.06    0.34 
  -2   6   4   29.22    1.24 
   2  -6   4   30.21    1.21 
  -2   6  -4   31.03    1.38 
  -1   6   4   17.75    0.87 
   1  -6   4   18.21    0.87 
   0  -6   4  107.48    2.90 
   0   6   4  105.11    3.25 
  -1  -6   4   17.10    0.87 
   1   6   4   19.14    1.03 
  -1  -6  -4   18.93    0.79 
  -2  -6   4   29.79    1.23 
   2   6   4   30.48    1.38 
  -2  -6  -4   32.88    1.15 
  -3  -6   4    1.56    0.34 
   3   6   4    1.94    0.41 
  -3  -6  -4    2.13    0.34 
  -4  -6   4   27.77    1.26 
  -4  -6  -4   29.45    1.21 
  -5  -6   4    8.13    0.81 
  -5  -6  -4    8.32    0.64 
  -6  -6   4    9.79    0.96 
  -6  -6   4    9.13    0.89 
  -6  -6  -4   10.06    0.74 
  -7  -6   4    1.39    0.43 
  -6   6   5    0.38    0.32 
  -5   6   5    5.84    0.73 
  -5   6  -5    4.48    0.69 
  -4   6   5    9.12    0.90 
   4  -6   5   10.53    0.73 
  -4   6  -5    8.78    0.69 
   3  -6   5    0.38    0.20 
  -3   6   5    0.87    0.31 
  -2   6   5    8.13    0.66 
   2  -6   5    6.75    0.66 
  -1   6   5    7.15    0.80 
   1  -6   5    7.16    0.67 
   0   6   5    2.61    0.49 
   0  -6   5    2.21    0.39 
   1   6   5    6.75    0.75 
  -1  -6   5    4.66    0.56 
  -2  -6   5    7.58    0.74 
  -2  -6  -5    9.07    0.61 
  -3  -6   5    0.65    0.29 
  -3  -6  -5    0.49    0.22 
  -4  -6   5    9.64    0.91 
  -4  -6  -5    9.31    0.68 
  -6  -6   5    0.70    0.36 
  -4   6   6    7.83    0.90 
  -3   6   6    0.45    0.28 
  -2   6   6    3.98    0.69 
  -9   7   0    3.68    0.64 
  -8   7   0    4.24    0.65 
  -7   7   0   40.84    1.72 
  -6   7   0   21.23    1.10 
  -5   7   0   52.25    1.84 
  -4   7   0   20.64    0.97 
  -3   7   0    8.13    0.54 
  -2   7   0    1.87    0.28 
  -2   7   0    2.50    0.35 
   2  -7   0    1.94    0.14 
  -1   7   0   16.42    0.69 
   1  -7   0   16.44    0.52 
  -1   7   0   16.43    0.73 
   0  -7   0    0.01    0.08 
   0   7   0    0.09    0.09 
   0   7   0    0.93    0.17 
   1   7   0   16.50    0.60 
   1   7   0   15.69    0.75 
  -1  -7   0   16.40    0.61 
  -2  -7   0    2.59    0.29 
   2   7   0    1.24    0.24 
  -3  -7   0    8.66    0.48 
   3   7   0    8.72    0.58 
  -4  -7   0   20.37    0.86 
   4   7   0   22.51    1.03 
  -5  -7   0   49.05    1.59 
  -6  -7   0   19.13    0.91 
  -7  -7   0   36.54    1.41 
  -8  -7   0    5.95    0.63 
  -9   7   1   11.28    1.12 
  -9   7  -1   12.47    0.99 
  -8   7   1   13.98    1.01 
  -8   7  -1   17.53    1.11 
  -7   7   1   10.05    0.80 
  -7   7  -1    8.60    0.86 
  -6   7   1    5.13    0.63 
  -6   7  -1    4.97    0.62 
  -5   7   1   19.37    1.01 
  -5   7  -1   20.36    1.04 
  -4   7   1   20.03    0.97 
  -4   7  -1   20.83    1.00 
   3  -7   1   35.81    1.14 
  -3   7   1   49.38    1.55 
  -3   7  -1   48.71    1.55 
   2  -7   1  119.14    2.75 
  -2   7   1  120.65    3.14 
  -2   7  -1  118.43    3.18 
  -1   7   1   27.91    0.97 
  -1   7   1   27.42    1.10 
   1  -7   1   27.81    0.83 
  -1   7  -1   26.94    0.96 
  -1   7  -1   27.57    1.02 
   1  -7  -1   27.52    0.67 
   0  -7   1    0.10    0.08 
   0   7   1   -0.01    0.09 
   0   7   1   -0.02    0.06 
   0  -7  -1    0.05    0.05 
   0   7  -1    0.01    0.08 
   0   7  -1    0.07    0.09 
  -1  -7   1   28.63    0.93 
   1   7   1   27.02    0.80 
   1   7   1   25.95    1.09 
   1   7  -1   26.47    1.01 
  -1  -7  -1   27.13    0.83 
   1   7  -1   26.01    0.94 
  -2  -7   1  119.42    2.96 
   2   7   1  118.79    3.35 
  -2  -7  -1  118.97    2.86 
   2   7  -1  121.45    3.26 
   3   7   1   46.39    1.66 
  -3  -7   1   48.37    1.49 
  -3  -7  -1   48.64    1.43 
  -4  -7   1   20.57    0.89 
   4   7   1   19.76    0.99 
  -4  -7  -1   20.58    0.86 
  -5  -7   1   18.50    0.88 
   5   7   1   19.74    1.01 
  -5  -7  -1   19.82    0.89 
  -6  -7   1    5.03    0.53 
  -6  -7  -1    4.06    0.47 
  -7  -7   1    7.80    0.59 
  -7  -7  -1    7.11    0.66 
  -8  -7   1   13.77    0.85 
  -8  -7  -1   14.95    0.88 
  -9   7   2    9.74    1.05 
  -9   7  -2   10.96    1.10 
  -8   7   2    0.49    0.31 
  -8   7  -2    0.42    0.31 
  -7   7   2   15.54    1.05 
  -7   7  -2   16.52    1.06 
  -6   7   2   32.43    1.49 
  -6   7  -2   32.79    1.49 
  -5   7   2   16.98    0.97 
  -5   7  -2   17.34    0.99 
  -4   7   2   41.56    1.60 
  -4   7  -2   43.56    1.64 
  -4   7  -2   43.64    1.31 
   3  -7   2   92.64    2.35 
  -3   7   2   92.54    2.69 
  -3   7  -2   94.15    2.75 
  -3   7  -2   90.03    2.33 
   2  -7   2   45.21    1.34 
  -2   7   2   46.96    1.53 
  -2   7  -2   45.67    1.59 
  -1   7   2   70.74    2.25 
   1  -7   2   70.83    1.87 
  -1   7   2   69.64    1.99 
  -1   7  -2   69.50    2.12 
   0  -7   2    0.12    0.09 
   0   7   2    0.01    0.09 
   0   7   2    0.06    0.11 
   0   7  -2    0.08    0.11 
   0  -7  -2    0.02    0.04 
   1   7   2   67.68    2.20 
  -1  -7   2   69.33    1.89 
  -1  -7  -2   69.31    1.75 
   2   7   2   48.25    1.71 
  -2  -7   2   44.23    1.45 
  -2  -7  -2   46.72    1.37 
   3   7   2   93.49    2.84 
  -3  -7   2   93.32    2.55 
  -3  -7  -2   90.70    2.42 
   4   7   2   39.31    1.55 
  -4  -7   2   39.61    1.44 
  -4  -7  -2   40.12    1.35 
   5   7   2   14.98    0.89 
  -5  -7   2   16.84    0.88 
  -5  -7  -2   16.82    0.83 
   6   7   2   29.58    1.37 
  -6  -7   2   31.58    1.31 
  -6  -7  -2   32.56    1.30 
  -7  -7   2   15.08    0.87 
  -7  -7  -2   14.52    0.87 
  -8   7   3    3.50    0.63 
  -8   7  -3    1.60    0.47 
  -7   7   3   10.36    1.02 
  -7   7  -3   11.09    0.90 
  -6   7   3    5.71    0.72 
  -6   7  -3    7.89    0.85 
  -5   7   3   15.77    0.99 
  -5   7  -3   15.22    0.76 
  -5   7  -3   16.21    1.00 
  -4   7   3    5.08    0.61 
  -4   7  -3    4.14    0.57 
  -4   7  -3    4.80    0.47 
  -3   7   3   21.32    1.04 
   3  -7   3   21.83    0.91 
  -3   7  -3   20.33    1.07 
  -2   7   3   19.67    0.94 
   2  -7   3   21.16    0.87 
  -2   7  -3   19.85    1.01 
  -1   7   3  135.15    3.97 
   1  -7   3  141.97    3.47 
  -1   7   3  140.32    3.63 
  -1   7  -3  139.78    3.84 
   0   7   3    0.24    0.16 
   0  -7   3    0.11    0.11 
   1   7   3  136.45    3.92 
  -1  -7   3  134.29    3.45 
  -1  -7  -3  141.08    3.27 
   2   7   3   18.64    1.01 
  -2  -7   3   21.37    0.92 
  -2  -7  -3   19.29    0.79 
  -3  -7   3   19.96    0.96 
   3   7   3   21.10    1.09 
  -3  -7  -3   21.53    0.90 
  -4  -7   3    3.98    0.52 
   4   7   3    4.79    0.59 
  -4  -7  -3    4.70    0.50 
   5   7   3   16.14    0.97 
  -5  -7   3   16.46    0.96 
  -5  -7  -3   16.53    0.87 
  -6  -7   3    5.47    0.65 
   6   7   3    7.83    0.79 
  -6  -7  -3    6.55    0.67 
  -7  -7   3    9.86    0.77 
  -7  -7  -3   11.11    0.78 
  -7   7   4    3.42    0.63 
  -7   7  -4    4.05    0.70 
  -6   7   4    1.00    0.38 
  -6   7  -4    1.28    0.31 
  -6   7  -4    1.19    0.41 
  -5   7   4    2.84    0.54 
  -5   7  -4    4.11    0.62 
  -5   7  -4    3.39    0.46 
  -4   7   4    1.61    0.38 
  -4   7  -4    1.81    0.33 
  -4   7  -4    1.93    0.43 
   3  -7   4   12.85    0.76 
  -3   7   4   12.45    0.81 
  -3   7  -4   11.74    0.85 
   2  -7   4    0.28    0.16 
  -2   7   4   -0.08    0.11 
  -2   7  -4    0.03    0.18 
  -1   7   4    5.43    0.66 
   1  -7   4    4.56    0.50 
   0   7   4   -0.08    0.12 
   0  -7   4    0.05    0.12 
   1   7   4    5.80    0.67 
  -1  -7   4    4.67    0.52 
  -2  -7   4    0.29    0.17 
   2   7   4    0.12    0.17 
  -2  -7  -4    0.00    0.11 
   3   7   4   12.88    0.88 
  -3  -7  -4   12.16    0.70 
   4   7   4    1.73    0.39 
  -4  -7   4    1.59    0.39 
  -4  -7  -4    1.96    0.35 
  -5  -7   4    3.52    0.57 
  -5  -7  -4    3.29    0.48 
  -6  -7   4    1.13    0.39 
  -6  -7  -4    1.76    0.40 
  -6   7  -5    0.14    0.33 
  -5   7   5    7.71    0.87 
  -5   7  -5    5.98    0.82 
   4  -7   5    2.38    0.44 
  -4   7   5    3.62    0.57 
  -3   7   5   18.12    1.07 
   3  -7   5   18.10    1.00 
   2  -7   5   -0.06    0.12 
  -1   7   5    8.62    0.90 
   1  -7   5    9.59    0.69 
   0  -7   5    0.00    0.13 
   0   7   5    0.04    0.18 
  -1  -7   5    9.68    0.71 
   1   7   5   10.13    0.83 
  -2  -7   5   -0.03    0.14 
  -3  -7   5   20.07    1.10 
  -3  -7  -5   17.91    0.94 
  -4  -7  -5    2.62    0.44 
  -6  -7   5    0.49    0.37 
  -2   7   6    4.30    0.72 
  -9   8   0    9.89    1.04 
  -8   8   0    7.44    0.86 
  -7   8   0    8.28    0.86 
  -6   8   0    0.57    0.27 
  -5   8   0    7.21    0.72 
  -4   8   0   64.33    2.11 
  -3   8   0   67.85    2.08 
  -3   8   0   66.03    2.07 
  -2   8   0   10.28    0.59 
  -2   8   0    9.29    0.58 
   1  -8   0  154.59    3.38 
  -1   8   0  150.70    3.83 
  -1   8   0  151.68    4.02 
   0  -8   0   72.57    1.76 
   0   8   0   69.72    1.95 
   0   8   0   70.52    2.15 
   1   8   0  149.94    3.62 
  -1  -8   0  147.50    3.45 
   1   8   0  149.82    4.01 
  -2  -8   0    8.21    0.46 
   2   8   0    9.43    0.60 
  -3  -8   0   65.01    1.84 
   3   8   0   66.36    2.14 
  -4  -8   0   62.30    1.86 
   4   8   0   63.89    2.14 
  -5  -8   0    6.36    0.48 
  -6  -8   0    0.24    0.16 
  -7  -8   0    7.76    0.60 
  -8  -8   0    8.14    0.76 
  -9   8   1    5.56    0.80 
  -9   8  -1    6.42    0.86 
  -8   8   1   26.84    1.48 
  -8   8  -1   28.59    1.50 
  -7   8   1    1.75    0.42 
  -7   8  -1    1.67    0.42 
  -6   8   1   23.76    1.23 
  -6   8  -1   24.71    1.26 
  -5   8   1   63.60    2.20 
  -5   8  -1   65.53    2.23 
  -4   8   1   90.30    2.67 
  -4   8  -1   84.36    2.65 
  -3   8   1    2.07    0.35 
  -3   8  -1    2.76    0.40 
  -2   8   1    6.88    0.49 
  -2   8   1    8.12    0.57 
   2  -8   1    6.92    0.35 
  -2   8  -1    6.68    0.50 
  -2   8  -1    7.42    0.45 
  -1   8   1   24.08    0.91 
   1  -8   1   23.96    0.78 
  -1   8   1   23.31    1.05 
  -1   8  -1   23.66    0.97 
  -1   8  -1   23.53    0.92 
   0  -8   1   31.43    0.99 
   0   8   1   33.22    1.03 
   0   8   1   33.30    1.27 
   0  -8  -1   29.18    0.86 
   0   8  -1   31.08    1.11 
   0   8  -1   31.21    1.12 
   1   8   1   24.45    1.07 
  -1  -8   1   21.17    0.84 
  -1  -8  -1   23.38    0.76 
   1   8  -1   24.61    0.91 
   1   8  -1   23.41    0.96 
  -2  -8   1    7.69    0.49 
   2   8   1    7.70    0.57 
  -2  -8  -1    6.96    0.40 
   2   8  -1    7.07    0.51 
   3   8   1    2.54    0.39 
  -3  -8   1    2.93    0.37 
  -3  -8  -1    2.44    0.30 
   3   8  -1    2.68    0.38 
  -4  -8   1   90.06    2.49 
   4   8   1   91.65    2.80 
  -4  -8  -1   85.61    2.40 
  -5  -8   1   62.11    1.96 
   5   8   1   63.15    2.21 
  -5  -8  -1   63.45    1.95 
  -6  -8   1   22.63    1.05 
  -6  -8  -1   23.81    1.06 
  -7  -8   1    1.64    0.33 
  -7  -8  -1    1.81    0.35 
  -9   8  -2    0.71    0.42 
  -8   8   2    2.08    0.51 
  -8   8  -2    2.16    0.54 
  -7   8   2    0.23    0.26 
  -7   8  -2    0.34    0.29 
  -6   8   2   27.02    1.37 
  -6   8  -2   24.89    1.32 
  -5   8   2    3.08    0.49 
  -5   8  -2    4.00    0.57 
  -4   8   2   16.58    0.92 
  -4   8  -2   16.01    0.94 
   3  -8   2    7.62    0.45 
  -3   8   2    8.19    0.58 
  -3   8  -2    8.63    0.64 
   2  -8   2   92.68    2.36 
  -2   8   2   93.81    2.63 
  -2   8  -2   91.83    2.73 
   1  -8   2   11.21    0.55 
  -1   8   2   11.55    0.74 
  -1   8   2   11.21    0.60 
  -1   8  -2   10.72    0.66 
   0   8   2  148.75    4.19 
   0   8   2  152.61    3.71 
   0  -8   2  149.60    3.59 
   0   8  -2  150.58    3.83 
   0   8  -2  148.34    3.92 
  -1  -8   2   11.40    0.59 
   1   8   2    9.96    0.69 
  -1  -8  -2   11.41    0.50 
  -2  -8   2   91.56    2.53 
   2   8   2   92.61    2.91 
  -2  -8  -2   97.96    2.42 
   3   8   2    7.53    0.63 
  -3  -8   2    8.15    0.59 
  -3  -8  -2    7.87    0.48 
  -4  -8   2   16.18    0.88 
   4   8   2   15.29    0.91 
  -4  -8  -2   16.00    0.77 
  -5  -8   2    3.96    0.51 
   5   8   2    3.11    0.49 
  -5  -8  -2    3.01    0.42 
  -6  -8   2   25.36    1.17 
   6   8   2   23.84    1.24 
  -6  -8  -2   23.39    1.09 
  -7  -8   2    0.72    0.24 
  -7  -8  -2    0.41    0.20 
  -8   8  -3    5.63    0.80 
  -7   8   3    1.80    0.45 
  -7   8  -3    1.85    0.49 
  -6   8   3   12.21    0.92 
  -6   8  -3   13.19    0.97 
  -5   8   3    7.66    0.82 
  -5   8  -3    7.06    0.78 
   4  -8   3    0.09    0.12 
  -4   8   3    0.62    0.26 
  -4   8  -3   -0.05    0.14 
   3  -8   3    4.25    0.46 
  -3   8   3    4.25    0.54 
  -3   8  -3    3.69    0.54 
   2  -8   3   14.68    0.73 
  -2   8   3   15.87    0.83 
  -2   8  -3   15.25    0.89 
  -1   8   3    0.67    0.20 
  -1   8   3    0.94    0.30 
   1  -8   3    0.67    0.20 
  -1   8  -3    0.56    0.21 
   0   8   3    5.86    0.67 
   0  -8   3    6.00    0.45 
  -1  -8   3    0.67    0.20 
   1   8   3    0.68    0.25 
   2   8   3   15.52    0.95 
  -2  -8   3   14.42    0.79 
  -2  -8  -3   16.12    0.71 
   3   8   3    4.19    0.59 
  -3  -8   3    3.63    0.48 
  -3  -8  -3    3.93    0.43 
   4   8   3    0.22    0.19 
  -4  -8   3    0.12    0.23 
  -4  -8  -3    0.16    0.14 
   5   8   3    7.59    0.79 
  -5  -8   3    6.83    0.72 
  -5  -8  -3    7.59    0.59 
   6   8   3   12.62    0.89 
  -6  -8   3   11.94    0.84 
  -6  -8  -3   11.50    0.77 
  -7   8  -4    3.17    0.64 
  -6   8   4   15.32    1.08 
  -6   8  -4   13.52    1.06 
   5  -8   4    6.46    0.65 
  -5   8   4    5.45    0.71 
  -5   8  -4    5.64    0.77 
  -5   8  -4    5.76    0.61 
   4  -8   4   10.61    0.71 
  -4   8   4   11.86    0.85 
  -4   8  -4   10.96    0.87 
   3  -8   4   11.66    0.72 
  -3   8   4   12.14    0.82 
  -3   8  -4   11.18    0.86 
  -2   8   4   70.56    2.28 
   2  -8   4   70.32    2.17 
  -2   8  -4   69.27    2.47 
  -1   8   4   11.91    0.87 
   1  -8   4   10.65    0.68 
   0  -8   4   28.04    1.20 
   0   8   4   30.63    1.46 
   1   8   4   11.26    0.84 
  -1  -8   4   12.16    0.75 
   2   8   4   70.20    2.52 
  -2  -8   4   68.61    2.20 
   3   8   4   11.21    0.87 
  -3  -8   4   11.19    0.78 
  -3  -8  -4   11.50    0.68 
  -4  -8   4   11.82    0.87 
   4   8   4   13.01    0.92 
  -4  -8  -4   11.79    0.74 
  -5  -8   4    5.27    0.71 
  -5  -8  -4    6.88    0.70 
  -6  -8   4   12.81    0.97 
  -5   8   5    7.76    0.90 
  -5   8  -5    5.54    0.81 
  -4   8   5   14.17    1.01 
  -4   8  -5   15.64    1.12 
   3  -8   5    6.32    0.67 
  -3   8   5    5.44    0.67 
  -2   8   5   11.33    0.94 
   2  -8   5   11.22    0.78 
   1  -8   5    3.59    0.50 
  -1   8   5    3.48    0.60 
   0   8   5   17.32    1.14 
   0  -8   5   19.43    1.04 
  -1  -8   5    4.02    0.54 
   1   8   5    3.13    0.56 
  -2  -8   5   12.01    0.83 
   2   8   5   10.43    0.89 
  -2   8   6    0.63    0.36 
  -1   8   6    1.04    0.40 
  -8   9   0    0.66    0.35 
  -7   9   0    0.14    0.24 
  -6   9   0    5.78    0.71 
  -5   9   0   15.24    0.91 
  -4   9   0   30.62    1.30 
  -3   9   0  133.03    3.64 
  -3   9   0  127.86    3.57 
  -2   9   0   30.00    1.20 
  -2   9   0   28.60    1.14 
  -1   9   0    0.24    0.12 
  -1   9   0    0.29    0.15 
   0  -9   0   -0.07    0.08 
   0   9   0    0.09    0.12 
   0   9   0    0.06    0.10 
   1   9   0    0.28    0.15 
  -1  -9   0    0.17    0.10 
   1   9   0    0.29    0.12 
   2   9   0   28.38    1.19 
  -2  -9   0   26.78    0.95 
   3   9   0  120.13    3.48 
  -3  -9   0  119.26    3.01 
   4   9   0   30.98    1.36 
  -4  -9   0   31.66    1.17 
  -5  -9   0   13.91    0.76 
  -6  -9   0    4.43    0.53 
  -7  -9   0    0.70    0.24 
  -8   9   1    1.39    0.46 
  -8   9  -1    1.05    0.43 
  -7   9   1   24.61    1.37 
  -7   9  -1   26.06    1.40 
  -6   9   1    3.62    0.56 
  -6   9  -1    3.62    0.57 
  -5   9   1   24.77    1.23 
  -5   9  -1   24.92    1.24 
  -4   9   1    7.40    0.60 
  -4   9  -1    8.44    0.64 
  -3   9   1   43.28    1.65 
  -3   9   1   45.41    1.59 
  -3   9  -1   42.23    1.60 
  -2   9   1   14.34    0.82 
  -2   9   1   13.42    0.72 
  -2   9  -1   14.96    0.73 
  -2   9  -1   14.55    0.79 
  -1   9   1   64.79    2.18 
   1  -9   1   64.88    1.71 
  -1   9   1   65.87    1.94 
  -1   9  -1   68.66    2.02 
  -1   9  -1   64.97    2.02 
   0   9   1    0.12    0.12 
   0   9   1   -0.04    0.08 
   0  -9   1   -0.02    0.11 
   0   9  -1    0.00    0.10 
   0   9  -1    0.16    0.11 
  -1  -9   1   65.84    1.80 
   1   9   1   62.08    2.13 
  -1  -9  -1   63.91    1.66 
   1   9  -1   63.07    1.88 
   1   9  -1   64.02    2.01 
  -2  -9   1   13.70    0.69 
   2   9   1   13.92    0.83 
   2   9  -1   13.65    0.76 
  -2  -9  -1   13.63    0.60 
  -3  -9   1   41.64    1.40 
   3   9   1   42.14    1.61 
  -3  -9  -1   40.72    1.31 
   3   9  -1   39.97    1.54 
  -4  -9   1    6.77    0.52 
   4   9   1    7.61    0.75 
  -4  -9  -1    7.27    0.50 
   5   9   1   21.36    1.14 
  -5  -9   1   21.54    1.00 
  -5  -9  -1   22.17    0.99 
  -6  -9   1    3.65    0.47 
  -6  -9  -1    3.67    0.48 
  -7  -9   1   22.31    1.11 
  -7  -9  -1   21.55    1.09 
  -8   9   2    3.74    0.67 
  -8   9  -2    2.96    0.64 
  -7   9   2   15.07    1.07 
  -7   9  -2   14.07    1.05 
  -6   9   2    5.43    0.70 
  -6   9  -2    5.85    0.74 
  -5   9   2   14.44    0.94 
  -5   9  -2   14.40    0.96 
  -4   9   2   17.41    0.99 
  -4   9  -2   19.34    1.07 
  -3   9   2   19.03    0.97 
  -3   9  -2   20.69    1.06 
  -2   9   2    6.72    0.52 
   2  -9   2    6.98    0.43 
  -2   9   2    6.21    0.68 
  -2   9  -2    5.50    0.59 
   1  -9   2   47.21    1.42 
  -1   9   2   49.87    1.84 
  -1   9   2   46.10    1.52 
  -1   9  -2   45.46    1.66 
   0   9   2    0.07    0.14 
   0  -9   2   -0.02    0.09 
   0   9  -2   -0.03    0.11 
   1   9   2   47.57    1.81 
  -1  -9   2   46.51    1.50 
   1   9  -2   46.16    1.60 
   2   9   2    5.64    0.65 
  -2  -9   2    6.31    0.59 
  -2  -9  -2    5.69    0.39 
   3   9   2   20.59    1.12 
  -3  -9   2   20.10    0.98 
  -3  -9  -2   20.92    0.86 
   4   9   2   18.18    1.04 
  -4  -9   2   19.85    0.99 
  -4  -9  -2   19.49    0.89 
   5   9   2   13.83    0.91 
  -5  -9   2   14.50    0.85 
  -5  -9  -2   13.16    0.76 
  -6  -9   2    6.50    0.68 
   6   9   2    6.75    0.76 
  -6  -9  -2    6.77    0.65 
  -7  -9   2   14.11    0.90 
  -7  -9  -2   15.12    0.90 
  -7   9   3    9.58    1.04 
  -7   9  -3   11.97    1.14 
  -6   9   3    3.46    0.60 
  -6   9  -3    2.31    0.52 
  -5   9   3   15.23    0.98 
  -5   9  -3   14.61    1.01 
  -4   9   3    1.88    0.40 
  -4   9  -3    0.19    0.18 
  -3   9   3   31.22    1.33 
   3  -9   3   31.45    1.17 
  -3   9  -3   28.75    1.40 
  -2   9   3   40.11    1.75 
  -2   9   3   43.25    1.55 
   2  -9   3   42.00    1.42 
  -2   9  -3   42.43    1.68 
  -1   9   3   16.44    1.01 
   1  -9   3   17.68    0.83 
  -1   9  -3   17.31    0.97 
   0   9   3   -0.09    0.12 
   0  -9   3    0.13    0.14 
   0   9  -3   -0.10    0.14 
   1   9   3   15.67    0.97 
  -1  -9   3   16.92    0.84 
   2   9   3   42.59    1.78 
  -2  -9   3   41.82    1.53 
   3   9   3   30.14    1.44 
  -3  -9   3   26.95    1.24 
  -3  -9  -3   29.82    1.13 
  -4  -9   3    2.06    0.44 
   4   9   3    2.92    0.49 
  -4  -9  -3    2.86    0.40 
  -5  -9   3   14.14    0.94 
   5   9   3   13.53    0.94 
  -5  -9  -3   13.55    0.80 
   6   9   3    1.89    0.45 
  -6  -9   3    3.11    0.54 
  -6  -9  -3    3.10    0.47 
  -6   9   4    0.85    0.35 
  -6   9  -4    0.93    0.43 
  -5   9   4    8.91    0.94 
  -5   9  -4    8.31    0.95 
   4  -9   4    3.39    0.46 
  -4   9   4    3.28    0.54 
  -4   9  -4    3.13    0.58 
   3  -9   4    3.66    0.49 
  -3   9   4    4.00    0.56 
  -3   9  -4    4.30    0.65 
   2  -9   4    2.86    0.42 
  -2   9   4    2.71    0.52 
  -2   9  -4    2.38    0.49 
  -1   9   4   29.78    1.51 
   1  -9   4   31.48    1.27 
   0  -9   4   -0.03    0.12 
   0   9   4    0.14    0.19 
   1   9   4   32.47    1.57 
  -1  -9   4   33.44    1.36 
   2   9   4    2.88    0.54 
  -2  -9   4    3.02    0.47 
  -3  -9   4    4.16    0.57 
   3   9   4    3.60    0.60 
  -4  -9   4    2.62    0.51 
   4   9   4    3.16    0.55 
  -4  -9  -4    2.95    0.45 
  -5  -9  -4    8.40    0.77 
  -5   9   5    4.26    0.69 
  -4   9   5    4.01    0.64 
  -4   9  -5    4.65    0.76 
  -3   9   5    6.01    0.85 
  -2   9   5    1.60    0.45 
   2  -9   5    1.36    0.35 
  -1   9   5    3.85    0.65 
   1  -9   5    5.66    0.63 
   0  -9   5    0.08    0.18 
   0   9   5   -0.10    0.19 
   1   9   5    6.85    0.85 
  -1  -9   5    5.94    0.68 
   2   9   5    2.25    0.51 
  -1   9   6   13.52    1.12 
  -8  10   0    6.32    0.86 
  -7  10   0    0.08    0.22 
  -6  10   0   73.47    2.59 
  -5  10   0    3.39    0.52 
  -4  10   0   19.51    1.03 
  -4  10   0   17.75    0.95 
  -3  10   0   14.70    0.84 
  -3  10   0   14.61    0.83 
  -2  10   0  136.44    3.77 
  -2  10   0  131.73    3.62 
  -1  10   0    2.22    0.34 
  -1  10   0    1.60    0.32 
   0  10   0  101.87    3.06 
   0  10   0  104.86    2.79 
   1  10   0    1.86    0.35 
  -1 -10   0    1.43    0.23 
   2  10   0  121.96    3.57 
  -2 -10   0  125.67    3.06 
   3  10   0   13.78    0.86 
  -3 -10   0   15.62    0.73 
  -4 -10   0   19.29    0.87 
   4  10   0   17.46    1.02 
  -5 -10   0    3.48    0.44 
  -6 -10   0   72.64    2.28 
  -7 -10   0    0.24    0.19 
  -8  10   1    0.96    0.39 
  -8  10  -1    1.61    0.48 
  -7  10   1   -0.03    0.20 
  -7  10  -1   -0.07    0.21 
  -6  10   1    3.31    0.55 
  -6  10  -1    2.24    0.48 
  -5  10   1    1.26    0.34 
  -5  10  -1    2.02    0.41 
  -4  10   1   46.13    1.74 
  -4  10  -1   44.31    1.76 
  -3  10   1    3.54    0.51 
  -3  10   1    3.54    0.47 
  -3  10  -1    2.55    0.42 
  -2  10   1   84.20    2.73 
  -2  10   1   86.72    2.52 
  -2  10  -1   84.89    2.58 
  -1  10   1    3.64    0.51 
  -1  10   1    4.28    0.45 
  -1  10  -1    3.83    0.46 
  -1  10  -1    4.72    0.49 
   0  10   1   48.30    1.83 
   0 -10   1   48.98    1.46 
   0  10  -1   50.76    1.64 
   0  10  -1   48.68    1.67 
   1  10   1    4.36    0.55 
  -1 -10   1    4.19    0.44 
   1  10  -1    4.42    0.45 
   1  10  -1    4.24    0.48 
  -2 -10   1   77.08    2.17 
   2  10   1   66.66    2.48 
   2  10  -1   82.30    2.47 
  -2 -10  -1   81.85    2.07 
  -3 -10   1    3.62    0.44 
   3  10   1    2.67    0.44 
   3  10  -1    3.24    0.48 
  -3 -10  -1    2.90    0.35 
  -4 -10   1   45.57    1.55 
   4  10   1   42.12    1.75 
  -4 -10  -1   42.47    1.46 
  -5 -10   1    2.07    0.36 
   5  10   1    1.99    0.42 
  -5 -10  -1    2.01    0.34 
  -6 -10   1    2.58    0.41 
  -6 -10  -1    2.86    0.44 
  -7 -10   1    0.41    0.21 
  -7 -10  -1   -0.13    0.12 
  -8  10  -2   13.97    1.12 
  -7  10   2    0.88    0.37 
  -7  10  -2    0.97    0.37 
  -6  10   2    8.57    0.90 
  -6  10  -2    9.64    0.98 
  -5  10   2   11.37    0.84 
  -5  10  -2   10.20    0.83 
  -4  10   2   25.49    1.21 
  -4  10  -2   22.30    1.22 
  -3  10   2    0.74    0.30 
  -3  10   2    1.05    0.28 
  -3  10  -2    1.50    0.35 
  -2  10   2   31.28    1.24 
  -2  10   2   30.34    1.43 
  -2  10  -2   31.15    1.35 
  -1  10   2    2.12    0.33 
  -1  10   2    2.09    0.42 
   1 -10   2    2.17    0.31 
  -1  10  -2    2.18    0.38 
   0  10   2   56.95    2.15 
   0 -10   2   59.32    1.76 
   0  10  -2   61.48    1.99 
  -1 -10   2    1.73    0.32 
   1  10   2    2.02    0.41 
   1  10  -2    2.68    0.40 
  -2 -10   2   31.95    1.25 
   2  10   2   31.80    1.47 
  -3 -10   2    1.08    0.31 
   3  10   2    1.00    0.32 
  -3 -10  -2    0.97    0.22 
   4  10   2   24.05    1.25 
  -4 -10   2   24.15    1.12 
  -4 -10  -2   22.32    0.99 
  -5 -10   2   11.74    0.79 
   5  10   2   11.55    0.88 
  -5 -10  -2   11.39    0.71 
  -6 -10   2    9.53    0.73 
   6  10   2    8.64    0.90 
  -6 -10  -2    9.02    0.67 
  -7  10   3    0.93    0.40 
  -7  10  -3    0.83    0.42 
  -6  10   3   27.41    1.50 
  -6  10  -3   26.70    1.51 
  -5  10   3    0.21    0.25 
  -5  10  -3    0.07    0.23 
  -4  10   3   17.21    1.02 
  -4  10  -3   14.74    1.02 
  -3  10   3    9.32    0.94 
  -3  10   3    9.95    0.72 
  -3  10  -3   10.89    0.82 
  -2  10   3    9.41    0.81 
   2 -10   3   11.48    0.66 
  -2  10   3   11.53    0.72 
  -2  10  -3   12.19    0.84 
  -1  10   3   11.45    0.87 
   1 -10   3   11.38    0.67 
  -1  10  -3   12.25    0.82 
   0  10   3  163.56    4.76 
   0 -10   3  163.90    4.09 
   0  10  -3  159.22    4.45 
   1  10   3   11.63    0.87 
  -1 -10   3   11.14    0.70 
   2  10   3    9.35    0.79 
  -2 -10   3   11.01    0.73 
   3  10   3   11.24    0.88 
  -3 -10   3   10.97    0.78 
  -4 -10   3   13.43    0.91 
   4  10   3   14.12    0.98 
  -4 -10  -3   15.62    0.83 
   5  10   3    0.03    0.21 
  -5 -10   3    0.17    0.27 
  -5 -10  -3    0.43    0.22 
   6  10   3   23.88    1.36 
  -6 -10  -3   23.98    1.18 
   7  10   3    0.72    0.35 
  -6  10   4    2.49    0.54 
  -6  10  -4    2.28    0.57 
  -5  10   4    5.24    0.72 
  -5  10  -4    4.42    0.72 
  -4  10   4   25.48    1.33 
  -4  10  -4   26.05    1.46 
   3 -10   4    0.98    0.28 
  -3  10   4    0.76    0.33 
  -3  10  -4    1.01    0.36 
   2 -10   4    0.28    0.20 
  -2  10   4    0.49    0.27 
  -2  10  -4    0.47    0.27 
  -1  10   4    0.69    0.30 
   1 -10   4    0.71    0.25 
   0 -10   4    9.87    0.69 
   0  10   4    8.08    0.89 
  -1 -10   4    0.35    0.21 
   1  10   4    0.26    0.22 
  -2 -10   4    0.24    0.24 
   2  10   4    0.35    0.29 
   3  10   4    1.70    0.45 
  -3 -10   4    1.58    0.41 
   4  10   4   23.52    1.35 
   5  10   4    5.84    0.78 
  -5 -10  -4    4.62    0.60 
  -3  10   5    1.33    0.47 
  -2  10   5   13.85    1.10 
  -1  10   5    0.60    0.31 
   0  10   5   30.41    1.64 
   1  10   5    1.06    0.40 
   2  10   5   15.59    1.17 
  -8  11   0    5.28    0.80 
  -7  11   0    0.82    0.34 
  -6  11   0    8.09    0.86 
  -5  11   0    2.97    0.51 
  -4  11   0   11.23    0.79 
  -3  11   0   17.99    0.97 
  -3  11   0   18.51    1.01 
  -2  11   0   19.69    1.02 
  -2  11   0   20.29    0.97 
  -1  11   0    0.70    0.22 
  -1  11   0    0.61    0.26 
   0  11   0   -0.05    0.15 
   0  11   0    0.11    0.15 
   1  11   0    0.58    0.25 
   2  11   0   19.22    1.04 
  -2 -11   0   19.03    0.80 
  -3 -11   0   18.80    0.84 
   3  11   0   18.77    1.05 
   4  11   0   11.08    0.81 
  -4 -11   0   11.33    0.67 
  -5 -11   0    3.85    0.48 
   5  11   0    3.60    0.56 
  -6 -11   0    6.99    0.68 
  -7  11   1    3.52    0.61 
  -7  11  -1    4.03    0.67 
  -6  11   1    4.40    0.65 
  -6  11  -1    5.85    0.76 
  -5  11   1   28.54    1.40 
  -5  11  -1   30.52    1.47 
  -4  11   1   18.63    1.03 
  -4  11   1   18.04    1.07 
  -4  11  -1   17.56    1.04 
  -3  11   1   78.50    2.50 
  -3  11   1   81.73    2.69 
  -3  11  -1   76.23    2.56 
  -2  11   1   10.79    0.68 
  -2  11   1   12.11    0.84 
  -2  11  -1   10.30    0.72 
  -1  11   1   91.86    2.93 
  -1  11   1   89.90    2.59 
  -1  11  -1   93.50    2.75 
  -1  11  -1   87.23    2.67 
   0  11   1    0.04    0.16 
   0  11  -1   -0.06    0.13 
   0  11  -1    0.06    0.14 
   1  11   1   89.33    2.90 
  -1 -11   1   84.88    2.37 
   1  11  -1   90.50    2.55 
   1  11  -1   88.79    2.72 
   2  11   1    9.13    0.74 
  -2 -11   1    9.06    0.58 
   2  11  -1   10.10    0.70 
   3  11   1   72.48    2.51 
  -3 -11   1   69.94    2.14 
  -3 -11  -1   74.73    2.07 
   3  11  -1   72.51    2.45 
   4  11   1   16.13    1.01 
  -4 -11   1   14.64    0.82 
  -4 -11  -1   16.36    0.81 
  -5 -11   1   25.78    1.16 
   5  11   1   25.10    1.33 
  -5 -11  -1   25.48    1.12 
  -6 -11   1    3.93    0.52 
   6  11   1    6.76    0.79 
  -6 -11  -1    4.60    0.55 
  -7  11   2   24.50    1.46 
  -7  11  -2   24.09    1.46 
  -6  11   2    0.31    0.25 
  -6  11  -2    0.99    0.40 
  -5  11   2   25.67    1.32 
  -5  11  -2   22.61    1.32 
  -4  11   2    2.00    0.46 
  -4  11   2    2.35    0.43 
  -4  11  -2    2.34    0.46 
  -3  11   2   24.64    1.33 
  -3  11   2   24.94    1.19 
  -3  11  -2   27.68    1.33 
  -2  11   2   16.26    1.05 
  -2  11   2   17.45    0.91 
  -2  11  -2   17.51    1.00 
  -1  11   2   55.46    2.16 
  -1  11  -2   56.15    1.98 
   0  11   2   -0.11    0.14 
   0 -11   2   -0.17    0.13 
   0  11  -2   -0.05    0.12 
  -1 -11   2   57.93    1.83 
   1  11   2   55.94    2.19 
   1  11  -2   56.62    1.93 
  -2 -11   2   15.70    0.86 
   2  11   2   15.29    1.00 
   3  11   2   24.27    1.31 
  -3 -11   2   26.10    1.18 
   4  11   2    2.75    0.51 
  -4 -11   2    2.45    0.43 
  -4 -11  -2    2.31    0.36 
  -5 -11   2   22.39    1.14 
   5  11   2   21.11    1.25 
  -5 -11  -2   22.83    1.06 
   6  11   2    0.67    0.33 
  -6 -11  -2    1.24    0.32 
  -6  11   3    1.03    0.38 
  -6  11  -3    0.44    0.34 
  -5  11   3    5.47    0.73 
  -5  11  -3    6.46    0.84 
  -4  11   3    0.30    0.28 
  -4  11   3    0.55    0.26 
  -4  11  -3    0.24    0.24 
  -3  11   3    0.77    0.32 
  -3  11   3    1.08    0.32 
  -3  11  -3    0.55    0.28 
  -2  11   3    4.07    0.63 
  -2  11  -3    4.56    0.62 
   1 -11   3    5.23    0.54 
  -1  11   3    4.75    0.69 
  -1  11  -3    4.79    0.62 
   0  11   3    0.02    0.15 
   0 -11   3   -0.16    0.12 
   0  11  -3    0.14    0.18 
  -1 -11   3    4.22    0.53 
   1  11   3    4.42    0.67 
  -2 -11   3    4.79    0.60 
   2  11   3    6.13    0.78 
  -3 -11   3    0.50    0.32 
   3  11   3    0.98    0.36 
   4  11   3    0.41    0.27 
  -4 -11   3    0.55    0.31 
   5  11   3    4.56    0.69 
  -5 -11  -3    5.17    0.59 
   6  11   3    0.32    0.31 
   7  11   3   10.59    1.08 
  -5  11   4    7.31    0.88 
  -5  11  -4    9.48    1.05 
  -4  11   4    0.25    0.25 
  -4  11   4    0.24    0.27 
  -4  11  -4    0.26    0.31 
  -3  11   4    3.25    0.63 
  -3  11  -4    3.88    0.65 
  -2  11   4    8.91    0.99 
   2 -11   4    8.38    0.76 
  -2  11  -4    7.47    0.86 
  -1  11   4   19.39    1.28 
   1 -11   4   20.63    1.05 
   0  11   4   -0.02    0.19 
   0 -11   4   -0.16    0.15 
   1  11   4   17.04    1.19 
  -1 -11   4   21.59    1.10 
   2  11   4    7.89    0.94 
  -2 -11   4    7.88    0.80 
   3  11   4    3.49    0.63 
   4  11   4   -0.07    0.22 
   5  11   4    8.51    0.97 
  -2  11   5    4.65    0.77 
  -1  11   5    5.57    0.83 
   0  11   5   -0.18    0.21 
   1  11   5    6.13    0.88 
   2  11   5    5.41    0.84 
   3  11   5   15.69    1.20 
  -7  12   0    0.47    0.29 
  -6  12   0    3.20    0.58 
  -5  12   0    0.51    0.26 
  -4  12   0  100.25    3.17 
  -3  12   0    3.67    0.54 
  -3  12   0    3.38    0.50 
  -2  12   0   86.72    2.69 
  -2  12   0   87.76    2.83 
  -1  12   0    3.91    0.56 
  -1  12   0    3.84    0.49 
   0  12   0   87.14    2.83 
   1  12   0    3.28    0.51 
   2  12   0   80.26    2.68 
  -3 -12   0    3.75    0.43 
   3  12   0    4.97    0.65 
   4  12   0   97.10    3.13 
  -4 -12   0   90.22    2.62 
  -5 -12   0    0.20    0.16 
   5  12   0    0.26    0.24 
  -6 -12   0    2.23    0.40 
  -7  12   1    0.78    0.36 
  -7  12  -1    0.62    0.36 
  -6  12   1   13.22    1.00 
  -6  12  -1   14.20    1.05 
  -5  12   1    1.50    0.40 
  -5  12   1    0.93    0.37 
  -5  12  -1    1.32    0.39 
  -4  12   1   30.99    1.42 
  -4  12   1   28.05    1.44 
  -4  12  -1   32.07    1.50 
  -3  12   1    1.92    0.38 
  -3  12   1    2.75    0.52 
  -3  12  -1    2.98    0.49 
  -2  12   1   14.16    0.83 
  -2  12   1   13.31    0.93 
  -2  12  -1   15.57    0.91 
  -1  12   1    6.56    0.75 
  -1  12  -1    6.37    0.65 
   0  12   1   63.58    2.36 
   0  12  -1   63.84    2.08 
   0  12  -1   65.31    2.18 
   1  12   1    5.49    0.69 
  -1 -12   1    6.34    0.56 
   1  12  -1    6.89    0.69 
   2  12   1   11.80    0.89 
  -2 -12   1   14.30    0.75 
   2  12  -1   15.27    0.91 
  -3 -12   1    3.10    0.42 
   3  12   1    3.45    0.56 
   3  12  -1    3.34    0.53 
  -4 -12   1   29.94    1.24 
   4  12   1   29.39    1.48 
  -4 -12  -1   29.31    1.18 
  -5 -12   1    0.95    0.26 
   5  12   1    1.09    0.34 
  -5 -12  -1    1.36    0.30 
   6  12   1   11.96    0.95 
  -6 -12   1   14.19    0.88 
  -6 -12  -1   13.61    0.84 
  -6  12   2   11.46    1.11 
  -6  12  -2   11.11    1.12 
  -5  12   2    2.92    0.58 
  -5  12   2    3.96    0.61 
  -5  12  -2    3.66    0.62 
  -4  12   2    9.00    0.87 
  -4  12   2    8.71    0.94 
  -4  12  -2    9.46    0.94 
  -3  12   2    3.33    0.50 
  -3  12   2    4.00    0.63 
  -3  12  -2    4.28    0.61 
  -2  12   2   21.74    1.27 
  -1  12   2    6.60    0.79 
  -1  12  -2    5.81    0.66 
   0  12   2   41.09    1.85 
   0  12  -2   42.53    1.65 
   1  12   2    5.69    0.75 
  -1 -12   2    5.30    0.58 
   1  12  -2    5.51    0.60 
   2  12   2   19.97    1.21 
  -2 -12   2   20.40    1.03 
  -3 -12   2    3.64    0.53 
   3  12   2    3.34    0.56 
   4  12   2    7.78    0.87 
  -4 -12   2    8.67    0.80 
   5  12   2    2.98    0.56 
  -5 -12   2    3.67    0.54 
  -5 -12  -2    3.40    0.47 
   6  12   2   10.58    0.92 
  -6  12   3   20.15    1.29 
  -5  12   3   11.27    1.18 
  -5  12   3   12.47    0.95 
  -5  12  -3   10.32    1.10 
  -4  12   3    5.52    0.70 
  -4  12   3    4.64    0.74 
  -4  12  -3    4.94    0.72 
  -3  12   3    0.52    0.32 
  -3  12  -3    0.61    0.30 
  -2  12   3   10.22    1.06 
  -2  12  -3   10.44    0.84 
  -1  12   3    0.68    0.33 
  -1  12  -3    0.57    0.28 
   0  12   3    1.66    0.43 
   0 -12   3    1.25    0.32 
   0  12  -3    0.97    0.31 
  -1 -12   3    0.63    0.29 
   1  12   3    0.57    0.31 
   2  12   3   10.46    1.06 
  -2 -12   3   10.88    0.80 
   3  12   3    0.32    0.20 
  -3 -12   3    0.21    0.28 
   4  12   3    4.25    0.68 
  -4 -12   3    3.66    0.59 
   5  12   3   11.45    0.98 
   6  12   3   19.48    1.30 
  -5  12   4    1.34    0.45 
  -4  12   4    4.57    0.77 
  -4  12  -4    3.25    0.63 
  -3  12   4    1.39    0.46 
  -3  12  -4    1.05    0.40 
  -2  12   4   25.72    1.53 
  -2  12  -4   23.08    1.38 
  -1  12   4    1.22    0.39 
   1 -12   4    1.56    0.38 
   0 -12   4   16.03    0.96 
   0  12   4   16.94    1.20 
  -1 -12   4    1.26    0.38 
   1  12   4    1.31    0.42 
   2  12   4   24.16    1.49 
   3  12   4    1.23    0.44 
   4  12   4    3.54    0.66 
   5  12   4    1.73    0.50 
   0  12   5    3.99    0.72 
   1  12   5    1.05    0.42 
  -6  13   0    1.42    0.41 
  -5  13   0   11.49    0.91 
  -4  13   0    2.41    0.45 
  -3  13   0   34.18    1.51 
  -2  13   0    0.47    0.27 
  -2  13   0    0.54    0.24 
  -1  13   0   61.19    2.26 
  -1  13   0   59.70    2.04 
   0  13   0    0.00    0.21 
   1  13   0   51.25    2.00 
   2  13   0    0.32    0.23 
   3  13   0   33.62    1.59 
  -4 -13   0    2.80    0.41 
   4  13   0    2.98    0.53 
  -5 -13   0    9.50    0.68 
   5  13   0    9.22    0.94 
  -6  13   1    1.73    0.45 
  -6  13  -1    2.11    0.50 
  -5  13   1    8.46    0.90 
  -5  13  -1    9.64    0.99 
  -4  13   1   10.76    0.89 
  -4  13   1   10.14    0.80 
  -4  13  -1   12.48    0.92 
  -3  13   1   25.52    1.39 
  -3  13   1   28.15    1.32 
  -3  13  -1   27.62    1.37 
  -2  13   1    7.28    0.72 
  -2  13   1    9.12    0.92 
  -2  13  -1    9.79    0.74 
  -1  13   1   11.46    0.89 
  -1  13  -1   11.15    0.76 
   0  13   1    0.08    0.20 
   0  13  -1    0.08    0.18 
   0  13  -1   -0.19    0.14 
   1  13   1   10.66    0.86 
   1  13  -1   10.47    0.79 
   2  13   1    8.65    0.89 
   2  13  -1    8.27    0.70 
   3  13   1   23.65    1.33 
  -3 -13   1   26.41    1.13 
   3  13  -1   25.41    1.32 
  -4 -13   1   10.13    0.69 
   4  13   1   10.53    0.88 
   5  13   1    6.66    0.83 
  -5 -13   1    8.84    0.67 
  -5 -13  -1    8.00    0.62 
   6  13   1    2.74    0.56 
  -6  13   2    5.80    0.84 
  -6  13   2    5.97    0.80 
  -6  13  -2    6.18    0.86 
  -5  13   2   11.50    0.90 
  -5  13   2    9.33    1.04 
  -5  13  -2    9.06    0.99 
  -4  13   2    5.43    0.78 
  -4  13   2    5.10    0.66 
  -4  13  -2    5.24    0.72 
  -3  13   2   22.79    1.17 
  -3  13   2   20.21    1.30 
  -3  13  -2   22.48    1.26 
  -2  13   2    9.60    1.00 
  -2  13  -2   10.51    0.82 
  -1  13   2   22.54    1.35 
  -1  13  -2   26.41    1.28 
   0  13   2    0.12    0.22 
   0  13  -2    0.08    0.16 
   1  13   2   25.10    1.45 
   1  13  -2   27.75    1.26 
  -2 -13   2   11.50    0.77 
   2  13   2   10.93    0.92 
   3  13   2   21.97    1.31 
  -3 -13   2   21.40    1.09 
   4  13   2    5.41    0.74 
  -4 -13   2    5.51    0.66 
   5  13   2   10.90    0.94 
   6  13   2    7.52    0.94 
  -5  13   3   15.51    1.23 
  -5  13   3   18.39    1.19 
  -5  13  -3   18.32    1.27 
  -4  13   3    2.18    0.55 
  -4  13  -3    3.20    0.63 
  -3  13   3    2.10    0.52 
  -3  13  -3    3.21    0.59 
  -2  13   3    0.83    0.34 
  -2  13  -3    0.96    0.35 
  -1  13   3   21.14    1.34 
  -1  13  -3   18.96    1.17 
   0  13   3    0.08    0.22 
   0  13  -3    0.23    0.23 
   1  13   3   18.26    1.25 
  -1 -13   3   19.99    1.08 
   2  13   3    0.34    0.27 
  -3 -13   3    2.89    0.54 
   3  13   3    3.54    0.64 
   4  13   3    3.71    0.65 
   5  13   3   15.13    1.17 
  -3  13   4    8.84    1.07 
  -3  13  -4    9.59    1.05 
  -2  13   4    0.34    0.30 
  -2  13  -4    1.39    0.43 
  -1  13   4    3.78    0.69 
   0 -13   4    0.16    0.27 
   0  13   4   -0.19    0.18 
   1  13   4    3.66    0.69 
   2  13   4    1.40    0.46 
  -6  14   0    8.25    0.93 
  -5  14   0    3.36    0.60 
  -4  14   0    9.20    0.94 
  -3  14   0    5.17    0.67 
  -2  14   0   16.26    0.98 
  -1  14   0    1.00    0.38 
   0  14   0    0.23    0.21 
   1  14   0    0.72    0.32 
   2  14   0   15.14    1.03 
   3  14   0    4.85    0.70 
   4  14   0    8.35    0.92 
  -5 -14   0    2.64    0.44 
   5  14   0    2.47    0.54 
  -6  14   1    7.80    0.92 
  -5  14   1    3.37    0.59 
  -5  14  -1    4.13    0.68 
  -4  14   1   11.16    0.96 
  -4  14   1   12.44    0.92 
  -4  14  -1   12.30    0.96 
  -3  14   1    4.18    0.60 
  -3  14   1    3.76    0.64 
  -3  14  -1    4.64    0.65 
  -2  14   1   58.51    2.34 
  -2  14  -1   56.65    2.15 
  -1  14   1    1.72    0.47 
  -1  14  -1    0.76    0.29 
   0  14   1   48.92    2.12 
   1  14   1    1.68    0.46 
   1  14  -1    2.55    0.48 
   2  14   1   56.86    2.30 
   2  14  -1   58.37    2.20 
   3  14   1    3.28    0.59 
   3  14  -1    2.89    0.55 
  -4 -14   1   11.91    0.76 
   4  14   1   10.72    1.08 
   5  14   1    3.32    0.62 
  -6  14   2    6.98    0.95 
  -5  14   2    2.04    0.55 
  -5  14   2    2.00    0.52 
  -5  14  -2    1.59    0.47 
  -4  14   2   10.43    1.12 
  -4  14   2   10.80    0.86 
  -4  14  -2   11.67    0.96 
  -3  14   2    2.06    0.53 
  -3  14  -2    1.70    0.46 
  -2  14   2    3.25    0.62 
  -2  14  -2    4.48    0.64 
  -1  14   2    0.24    0.29 
  -1  14  -2    0.26    0.23 
   0  14   2   24.31    1.46 
   0  14  -2   26.20    1.29 
   1  14   2    0.49    0.33 
   2  14   2    1.65    0.45 
   3  14   2    1.82    0.48 
  -3 -14   2    1.56    0.38 
  -4 -14   2    9.54    0.87 
   4  14   2    9.39    1.02 
   5  14   2    1.35    0.46 
  -4  14   3    5.84    0.90 
  -4  14  -3    4.85    0.77 
  -3  14   3    0.90    0.42 
  -3  14  -3    1.04    0.41 
  -2  14   3    6.73    0.92 
  -2  14  -3    7.69    0.90 
  -1  14   3    0.62    0.34 
  -1  14  -3    0.94    0.37 
   0  14   3   28.28    1.65 
   1  14   3    0.32    0.29 
  -2 -14   3    8.70    0.87 
   2  14   3    5.90    0.85 
   3  14   3    1.43    0.46 
   4  14   3    4.02    0.73 
  -5  15   0    8.07    0.94 
  -4  15   0    2.54    0.54 
  -3  15   0   15.86    1.06 
  -1  15   0    4.67    0.69 
   0  15   0    0.35    0.29 
   1  15   0    5.06    0.71 
   2  15   0    6.15    0.77 
   3  15   0   13.58    1.04 
   4  15   0    1.50    0.47 
   5  15   0    5.60    0.81 
  -5  15   1    7.07    0.86 
  -5  15  -1    9.30    1.03 
  -4  15   1    0.44    0.29 
  -4  15  -1    0.40    0.30 
  -3  15   1   21.97    1.36 
  -3  15  -1   20.18    1.24 
  -2  15   1    0.09    0.29 
  -2  15  -1    0.64    0.29 
  -1  15   1    6.70    0.87 
   0  15   1    0.05    0.25 
   1  15   1    7.80    0.93 
   2  15   1    0.61    0.34 
   2  15  -1    0.28    0.30 
   3  15   1   18.17    1.22 
   3  15  -1   17.74    1.16 
   4  15   1    0.34    0.31 
  -5  15   2   12.79    1.01 
  -5  15   2   10.96    1.21 
  -4  15   2    4.63    0.79 
  -4  15  -2    6.27    0.87 
  -3  15   2    9.61    1.10 
  -3  15  -2   11.17    1.12 
  -2  15   2    0.52    0.34 
  -2  15  -2    0.41    0.31 
  -1  15   2   23.49    1.48 
  -1  15  -2   23.22    1.29 
   0  15   2   -0.13    0.23 
   1  15   2   21.39    1.41 
   2  15   2    0.32    0.32 
   3  15   2    8.18    0.98 
   4  15   2    4.85    0.78 
  -2  15   3   11.30    1.23 
  -2  15  -3   11.80    1.16 
  -1  15   3   18.00    1.35 
  -1  15  -3   21.32    1.30 
   0  15   3   -0.05    0.26 
   1  15   3   19.05    1.39 
   2  15   3   10.94    1.20 
  -4  16   0   47.17    2.10 
   0  16   0    9.10    0.98 
   1  16   0    1.55    0.46 
   2  16   0   11.65    1.14 
   3  16   0    3.20    0.63 
   4  16   0   45.65    2.12 
  -4  16  -1   10.41    1.09 
  -3  16  -1   -0.03    0.24 
  -2  16   1    2.80    0.63 
  -1  16   1    0.90    0.42 
   0  16   1   11.21    1.16 
   1  16   1    1.18    0.47 
   2  16   1    2.45    0.57 
   2  16  -1    2.93    0.60 
   3  16   1   -0.22    0.24 
   3  16  -1    0.27    0.33 
  -3  16   2   -0.02    0.32 
  -3  16  -2    0.32    0.31 
  -2  16   2    5.59    0.86 
  -2  16  -2    7.01    0.88 
  -1  16   2    1.52    0.53 
   0  16   2   17.18    1.31 
   1  16   2    2.38    0.60 
   2  16   2    7.14    0.96 
  -1  16  -3    1.41    0.47 
   1  17   0    7.54    0.93 
   2  17   0   10.21    1.11 
  -3  17  -1    7.29    0.92 
  -2  17   1    2.71    0.66 
  -1  17   1    2.57    0.65 
   0  17   1   -0.19    0.21 
   1  17   1    3.45    0.68 
   2  17   1    1.09    0.46 
   3  17  -1    6.47    0.88 
   1  18   0    1.38    0.50 
   0   0   0    0.00    0.00 
;
_shelx_hkl_checksum              13887
loop_
_space_group_symop_operation_xyz
'x, y, z'
'-x, -y, z'
'x+1/2, -y+1/2, z'
'-x+1/2, y+1/2, z'
loop_
_atom_site_label
_atom_site_type_symbol
_atom_site_fract_x
_atom_site_fract_y
_atom_site_fract_z
_atom_site_U_iso_or_equiv
_atom_site_adp_type
_atom_site_occupancy
_atom_site_site_symmetry_order
_atom_site_calc_flag
_atom_site_refinement_flags_posn
_atom_site_refinement_flags_adp
_atom_site_refinement_flags_occupancy
_atom_site_disorder_assembly
_atom_site_disorder_group
S1 S 1.000000 0.500000 0.0012(2) 0.0207(2) Uani 1 2 d S T P . .
N4 N 0.7524(3) 0.2499(2) 0.1393(6) 0.0301(6) Uani 1 1 d D . . . .
N3 N 0.8528(3) 0.10502(17) 0.3898(5) 0.0233(5) Uani 1 1 d D . . . .
N1 N 0.9411(3) 0.25576(18) 0.5071(5) 0.0275(5) Uani 1 1 d D . . . .
N2 N 1.0196(3) 0.18705(19) 0.6768(5) 0.0290(6) Uani 1 1 d . . . . .
O1 O 0.9325(3) 0.58532(14) -0.1606(5) 0.0312(5) Uani 1 1 d . . . . .
O2 O 0.8585(3) 0.45990(16) 0.1732(5) 0.0318(5) Uani 1 1 d . . . . .
C1 C 0.8421(3) 0.2077(2) 0.3321(6) 0.0228(6) Uani 1 1 d . . . . .
C2 C 0.9617(4) 0.0969(2) 0.6034(6) 0.0236(6) Uani 1 1 d . . . . .
C3 C 1.000000 0.000000 0.7544(8) 0.0271(9) Uani 1 2 d DS T P . .
H4A H 0.768(5) 0.3118(14) 0.099(9) 0.050(12) Uiso 1 1 d D . . . .
H1 H 0.960(5) 0.3193(13) 0.538(8) 0.044(10) Uiso 1 1 d D . . . .
H4B H 0.689(4) 0.217(2) 0.034(5) 0.031(9) Uiso 1 1 d D . . . .
H3A H 1.093(4) 0.017(3) 0.871(8) 0.050(11) Uiso 1 1 d D . . . .
H3 H 0.782(4) 0.061(3) 0.329(9) 0.061(13) Uiso 1 1 d D . . . .
loop_
_atom_site_aniso_label
_atom_site_aniso_U_11
_atom_site_aniso_U_22
_atom_site_aniso_U_33
_atom_site_aniso_U_23
_atom_site_aniso_U_13
_atom_site_aniso_U_12
S1 0.0241(4) 0.0138(4) 0.0243(4) 0.000 0.000 0.0010(3)
N4 0.0335(13) 0.0272(13) 0.0297(14) 0.0054(11) -0.0028(12) -0.0026(11)
N3 0.0248(12) 0.0222(11) 0.0231(11) -0.0009(9) -0.0019(10) -0.0035(9)
N1 0.0274(11) 0.0212(11) 0.0338(12) -0.0051(12) -0.0010(13) -0.0020(8)
N2 0.0276(12) 0.0297(12) 0.0296(14) -0.0070(11) -0.0021(11) 0.0014(10)
O1 0.0371(12) 0.0224(9) 0.0341(12) 0.0068(10) -0.0022(10) 0.0039(9)
O2 0.0324(11) 0.0245(10) 0.0385(13) 0.0013(9) 0.0103(10) -0.0010(8)
C1 0.0224(13) 0.0187(11) 0.0273(14) -0.0024(12) 0.0067(11) -0.0005(10)
C2 0.0218(12) 0.0263(13) 0.0226(12) -0.0044(11) 0.0018(11) 0.0007(11)
C3 0.034(2) 0.026(2) 0.021(2) 0.000 0.000 0.0022(17)
loop_
_atom_type_symbol
_atom_type_description
_atom_type_scat_dispersion_real
_atom_type_scat_dispersion_imag
_atom_type_scat_source
C C 0.0033 0.0016 'International Tables Vol C Tables 4.2.6.8 and 6.1.1.4'
H H 0.0000 0.0000 'International Tables Vol C Tables 4.2.6.8 and 6.1.1.4'
N N 0.0061 0.0033 'International Tables Vol C Tables 4.2.6.8 and 6.1.1.4'
O O 0.0106 0.0060 'International Tables Vol C Tables 4.2.6.8 and 6.1.1.4'
S S 0.1246 0.1234 'International Tables Vol C Tables 4.2.6.8 and 6.1.1.4'
loop_
_geom_angle_atom_site_label_1
_geom_angle_atom_site_label_2
_geom_angle_atom_site_label_3
_geom_angle
_geom_angle_site_symmetry_1
_geom_angle_site_symmetry_3
O1 S1 O1 112.0(2) . 2_765
O1 S1 O2 108.96(12) . .
O1 S1 O2 109.20(12) 2_765 .
O1 S1 O2 109.20(12) . 2_765
O1 S1 O2 108.96(12) 2_765 2_765
O2 S1 O2 108.5(2) . 2_765
C1 N4 H4A 120(3) . .
C1 N4 H4B 125(2) . .
H4A N4 H4B 114(4) . .
C1 N3 C2 106.3(2) . .
C1 N3 H3 122(3) . .
C2 N3 H3 129(3) . .
C1 N1 N2 111.9(2) . .
C1 N1 H1 132(3) . .
N2 N1 H1 116(3) . .
C2 N2 N1 104.1(2) . .
N4 C1 N1 127.5(3) . .
N4 C1 N3 126.4(3) . .
N1 C1 N3 106.0(2) . .
N2 C2 N3 111.6(2) . .
N2 C2 C3 122.1(3) . .
N3 C2 C3 126.1(2) . .
C2 C3 C2 118.3(3) 2_755 .
C2 C3 H3A 111(2) 2_755 .
C2 C3 H3A 106(2) . .
C2 C3 H3A 106(2) 2_755 2_755
C2 C3 H3A 111(2) . 2_755
H3A C3 H3A 104(5) . 2_755
loop_
_geom_bond_atom_site_label_1
_geom_bond_atom_site_label_2
_geom_bond_distance
_geom_bond_site_symmetry_2
S1 O1 1.466(2) .
S1 O1 1.466(2) 2_765
S1 O2 1.491(2) .
S1 O2 1.491(2) 2_765
N4 C1 1.315(4) .
N4 H4A 0.832(13) .
N4 H4B 0.840(13) .
N3 C1 1.356(3) .
N3 C2 1.375(4) .
N3 H3 0.841(13) .
N1 C1 1.324(4) .
N1 N2 1.374(4) .
N1 H1 0.845(13) .
N2 C2 1.298(3) .
C2 C3 1.492(4) .
C3 H3A 0.96(2) .
C3 H3A 0.96(2) 2_755
loop_
_geom_hbond_atom_site_label_D
_geom_hbond_atom_site_label_H
_geom_hbond_atom_site_label_A
_geom_hbond_distance_DH
_geom_hbond_distance_HA
_geom_hbond_distance_DA
_geom_hbond_angle_DHA
_geom_hbond_site_symmetry_A
_geom_hbond_publ_flag
N3 H3 O2 0.841(13) 1.875(14) 2.713(3) 175(4) 4_645 yes
N4 H4B O1 0.840(13) 2.172(17) 2.973(4) 159(3) 4_645 yes
N4 H4B N2 0.840(13) 2.55(3) 3.064(4) 120(3) 3_454 yes
N1 H1 O1 0.845(13) 2.13(3) 2.823(3) 139(4) 2_766 yes
N4 H4A O2 0.832(13) 2.07(2) 2.830(3) 153(4) . yes
loop_
_geom_torsion_atom_site_label_1
_geom_torsion_atom_site_label_2
_geom_torsion_atom_site_label_3
_geom_torsion_atom_site_label_4
_geom_torsion
_geom_torsion_site_symmetry_1
_geom_torsion_site_symmetry_2
_geom_torsion_site_symmetry_3
_geom_torsion_site_symmetry_4
C1 N1 N2 C2 -1.6(3) . . . .
N2 N1 C1 N4 -178.4(3) . . . .
N2 N1 C1 N3 1.1(3) . . . .
C2 N3 C1 N4 179.3(3) . . . .
C2 N3 C1 N1 -0.1(3) . . . .
N1 N2 C2 N3 1.5(3) . . . .
N1 N2 C2 C3 -173.4(2) . . . .
C1 N3 C2 N2 -0.9(3) . . . .
C1 N3 C2 C3 173.8(3) . . . .
N2 C2 C3 C2 -140.2(3) . . . 2_755
N3 C2 C3 C2 45.7(2) . . . 2_755
