#------------------------------------------------------------------------------
#$Date: 2022-09-23 12:18:47 +0300 (Fri, 23 Sep 2022) $
#$Revision: 278119 $
#$URL: file:///home/coder/svn-repositories/cod/cif/8/10/58/8105854.cif $
#------------------------------------------------------------------------------
#
# This file is available in the Crystallography Open Database (COD),
# http://www.crystallography.net/
#
# All data on this site have been placed in the public domain by the
# contributors.
#
data_8105854
loop_
_publ_author_name
'Tan, Nianyuan'
'Wu, Shuisheng'
'Huiqiong, Yang'
'Lan, Donghui'
'Au, Chak-Tong'
'Yi, Bing'
_publ_section_title
;
 Crystal structure of
 (2-bromobenzyl)((1-bromonaphthalen-2-yl)methyl)sulfane, C18H14Br2S
;
_journal_issue                   4
_journal_name_full
'Zeitschrift f\"ur Kristallographie - New Crystal Structures'
_journal_page_first              795
_journal_page_last               796
_journal_paper_doi               10.1515/ncrs-2019-0119
_journal_volume                  234
_journal_year                    2019
_chemical_formula_sum            'C18 H14 Br2 S'
_chemical_formula_weight         422.17
_chemical_melting_point          360
_chemical_name_systematic
;
 (2-bromobenzyl)((1-bromonaphthalen-2-yl)methyl)sulfane
;
_space_group_crystal_system      triclinic
_space_group_IT_number           2
_space_group_name_Hall           '-P 1'
_space_group_name_H-M_alt        'P -1'
_atom_sites_solution_hydrogens   geom
_atom_sites_solution_primary     direct
_cell_angle_alpha                76.328(3)
_cell_angle_beta                 84.313(3)
_cell_angle_gamma                81.952(3)
_cell_formula_units_Z            2
_cell_length_a                   7.1658(10)
_cell_length_b                   7.6868(11)
_cell_length_c                   14.971(2)
_cell_measurement_reflns_used    1886
_cell_measurement_temperature    296(2)
_cell_measurement_theta_max      52.166
_cell_measurement_theta_min      5.577
_cell_volume                     791.51(19)
_computing_cell_refinement       'Bruker SMART'
_computing_data_collection       'Bruker SMART'
_computing_data_reduction        'Bruker SAINT'
_computing_molecular_graphics    'Olex2 (Dolomanov et al., 2009)'
_computing_publication_material  'Olex2 (Dolomanov et al., 2009)'
_computing_structure_refinement  'SHELXL (Sheldrick, 2015)'
_computing_structure_solution    'ShelXT (Sheldrick, 2015)'
_diffrn_ambient_temperature      296.15
_diffrn_measured_fraction_theta_full 0.992
_diffrn_measured_fraction_theta_max 0.989
_diffrn_measurement_device_type  'Bruker APEX-II CCD'
_diffrn_measurement_method       'phi and omega scans'
_diffrn_radiation_monochromator  graphite
_diffrn_radiation_type           MoK\a
_diffrn_radiation_wavelength     0.71073
_diffrn_reflns_av_R_equivalents  0.0295
_diffrn_reflns_av_unetI/netI     0.0535
_diffrn_reflns_Laue_measured_fraction_full 0.992
_diffrn_reflns_Laue_measured_fraction_max 0.989
_diffrn_reflns_limit_h_max       8
_diffrn_reflns_limit_h_min       -8
_diffrn_reflns_limit_k_max       9
_diffrn_reflns_limit_k_min       -8
_diffrn_reflns_limit_l_max       18
_diffrn_reflns_limit_l_min       -18
_diffrn_reflns_number            4745
_diffrn_reflns_point_group_measured_fraction_full 0.992
_diffrn_reflns_point_group_measured_fraction_max 0.989
_diffrn_reflns_theta_full        25.242
_diffrn_reflns_theta_max         25.997
_diffrn_reflns_theta_min         2.747
_diffrn_source                   'fine-focus sealed tube'
_exptl_absorpt_coefficient_mu    5.243
_exptl_absorpt_correction_T_max  1.00000
_exptl_absorpt_correction_T_min  0.08976
_exptl_absorpt_correction_type   empirical
_exptl_absorpt_process_details   sadabs
_exptl_crystal_colour            colorless
_exptl_crystal_density_diffrn    1.771
_exptl_crystal_density_method    'not measured'
_exptl_crystal_description       prismatic
_exptl_crystal_F_000             416
_exptl_crystal_size_max          0.276
_exptl_crystal_size_mid          0.212
_exptl_crystal_size_min          0.167
_refine_diff_density_max         0.900
_refine_diff_density_min         -0.654
_refine_diff_density_rms         0.101
_refine_ls_extinction_coef       .
_refine_ls_extinction_method     none
_refine_ls_goodness_of_fit_ref   1.065
_refine_ls_hydrogen_treatment    constr
_refine_ls_matrix_type           full
_refine_ls_number_parameters     190
_refine_ls_number_reflns         3073
_refine_ls_number_restraints     0
_refine_ls_restrained_S_all      1.065
_refine_ls_R_factor_all          0.0555
_refine_ls_R_factor_gt           0.0436
_refine_ls_shift/su_max          0.000
_refine_ls_shift/su_mean         0.000
_refine_ls_structure_factor_coef Fsqd
_refine_ls_weighting_details
'w=1/[\s^2^(Fo^2^)+(0.0673P)^2^+0.1404P] where P=(Fo^2^+2Fc^2^)/3'
_refine_ls_weighting_scheme      calc
_refine_ls_wR_factor_gt          0.1171
_refine_ls_wR_factor_ref         0.1237
_reflns_Friedel_coverage         0.000
_reflns_Friedel_fraction_full    .
_reflns_Friedel_fraction_max     .
_reflns_number_gt                2452
_reflns_number_total             3073
_reflns_threshold_expression     'I > 2\s(I)'
_cod_data_source_file            suppl_ncrs-2019-0119_suppl.cif
_cod_data_source_block           cd
_cod_database_code               8105854
_shelx_space_group_comment
;
The symmetry employed for this shelxl refinement is uniquely defined
by the following loop, which should always be used as a source of
symmetry information in preference to the above space-group names.
They are only intended as comments.
;
_shelx_res_file
;
TITL cd212518 in P-1
    cd212518.res
    created by SHELXL-2018/3 at 19:16:50 on 16-Dec-2018
CELL 0.71073   7.1658   7.6868  14.9710  76.328  84.313  81.952
ZERR    2.00   0.0010   0.0011   0.0021   0.003   0.003   0.003
LATT 1
SFAC C  H  S  Br
UNIT 36 28 2 4
LIST 6 ! automatically inserted. Change 6 to 4 for CHECKCIF!!
omit   -1   0   6
omit    -1   0   7
omit    -3   0   2
omit    -1   3  12
OMIT  -3.00  52.00
L.S. 10
ACTA
BOND $H
FMAP 2
PLAN 20
conf
htab
mpla c1 > c6
mpla c9 c10 c11  c12 c17 c18
mpla c12 > c17
wpdb -1
WGHT    0.067300    0.140400
FVAR       0.70373
BR1   4   -0.285255    0.694762    0.949581    11.00000    0.06415    0.05161 =
         0.07022   -0.01438    0.00883   -0.01549
BR2   4    0.724894    0.732019    0.686537    11.00000    0.06359    0.08011 =
         0.04665   -0.00247   -0.01482   -0.01035
S1    3    0.193797    0.689002    0.805884    11.00000    0.05949    0.04005 =
         0.05024   -0.01164    0.01441   -0.00705
C1    1   -0.205529    0.927689    0.905275    11.00000    0.05456    0.04569 =
         0.03075   -0.01313   -0.00086   -0.00835
C2    1   -0.343241    1.073495    0.891462    11.00000    0.04859    0.05832 =
         0.04580   -0.02039   -0.00233    0.00114
AFIX  43
H2    2   -0.470105    1.056329    0.902675    11.00000   -1.20000
AFIX   0
C3    1   -0.292270    1.244797    0.860978    11.00000    0.07025    0.05247 =
         0.04917   -0.01753   -0.00896    0.00845
AFIX  43
H3    2   -0.384673    1.343727    0.850233    11.00000   -1.20000
AFIX   0
C4    1   -0.102870    1.269454    0.846338    11.00000    0.07691    0.04442 =
         0.04784   -0.01658    0.00281   -0.00682
AFIX  43
H4    2   -0.067528    1.384980    0.826199    11.00000   -1.20000
AFIX   0
C5    1    0.032942    1.121689    0.861804    11.00000    0.05417    0.05980 =
         0.04104   -0.01836    0.00398   -0.01412
AFIX  43
H5    2    0.159803    1.139402    0.852551    11.00000   -1.20000
AFIX   0
C6    1   -0.014827    0.946539    0.890927    11.00000    0.04929    0.04550 =
         0.02805   -0.01331   -0.00166   -0.00351
C7    1    0.138052    0.789477    0.905214    11.00000    0.04642    0.05910 =
         0.03861   -0.01177   -0.00091   -0.00145
AFIX  23
H7A   2    0.099003    0.697911    0.957681    11.00000   -1.20000
H7B   2    0.251509    0.829467    0.919876    11.00000   -1.20000
AFIX   0
C8    1    0.295052    0.873664    0.725761    11.00000    0.07806    0.04149 =
         0.05966   -0.01775    0.02821   -0.01769
AFIX  23
H8A   2    0.204136    0.981259    0.718446    11.00000   -1.20000
H8B   2    0.406137    0.898562    0.750423    11.00000   -1.20000
AFIX   0
C9    1    0.348440    0.829099    0.634121    11.00000    0.04675    0.03132 =
         0.04911   -0.00651    0.00841   -0.00583
C10   1    0.205524    0.851550    0.572801    11.00000    0.04106    0.04397 =
         0.07162   -0.00669    0.00930   -0.00565
AFIX  43
H10   2    0.082264    0.890909    0.591329    11.00000   -1.20000
AFIX   0
C11   1    0.242098    0.817644    0.487923    11.00000    0.04272    0.04754 =
         0.06782   -0.00352   -0.01124   -0.00759
AFIX  43
H11   2    0.144289    0.834683    0.449119    11.00000   -1.20000
AFIX   0
C12   1    0.426159    0.756928    0.457527    11.00000    0.05404    0.03355 =
         0.04115   -0.00250   -0.00297   -0.01149
C13   1    0.468307    0.718987    0.369592    11.00000    0.08508    0.05069 =
         0.04189   -0.00678   -0.00624   -0.02339
AFIX  43
H13   2    0.371381    0.734370    0.330439    11.00000   -1.20000
AFIX   0
C14   1    0.643643    0.661544    0.340952    11.00000    0.10350    0.05015 =
         0.04400   -0.01496    0.01808   -0.02018
AFIX  43
H14   2    0.667161    0.636337    0.282819    11.00000   -1.20000
AFIX   0
C15   1    0.791359    0.639371    0.398161    11.00000    0.07607    0.04960 =
         0.06215   -0.00880    0.03145    0.00202
AFIX  43
H15   2    0.913557    0.601349    0.377540    11.00000   -1.20000
AFIX   0
C16   1    0.757811    0.673243    0.484736    11.00000    0.04884    0.04855 =
         0.05434   -0.00756    0.00844    0.00020
AFIX  43
H16   2    0.857257    0.656004    0.522605    11.00000   -1.20000
AFIX   0
C17   1    0.574624    0.733741    0.516751    11.00000    0.04428    0.02895 =
         0.03849   -0.00163    0.00264   -0.00642
C18   1    0.527080    0.769236    0.604969    11.00000    0.04375    0.03310 =
         0.03863   -0.00040   -0.00205   -0.00634
HKLF 4




REM  cd212518 in P-1
REM wR2 = 0.1237, GooF = S = 1.065, Restrained GooF = 1.065 for all data
REM R1 = 0.0436 for 2452 Fo > 4sig(Fo) and 0.0555 for all 3073 data
REM 190 parameters refined using 0 restraints

END

WGHT      0.0667      0.1573

REM Instructions for potential hydrogen bonds
HTAB C8 Br2

REM Highest difference peak  0.900,  deepest hole -0.654,  1-sigma level  0.101
Q1    1   0.6193  0.7677  0.7028  11.00000  0.05    0.90
Q2    1  -0.2506  0.6845  1.0008  11.00000  0.05    0.67
Q3    1  -0.3005  0.8046  0.9256  11.00000  0.05    0.50
Q4    1   0.7278  0.6080  0.7001  11.00000  0.05    0.45
Q5    1   0.7207  0.7286  0.6390  11.00000  0.05    0.45
Q6    1  -0.5910  1.4381  0.8833  11.00000  0.05    0.44
Q7    1  -0.1621  0.6693  0.9382  11.00000  0.05    0.40
Q8    1   0.0727  0.5631  0.9683  11.00000  0.05    0.37
Q9    1   0.6608  0.6897  0.7427  11.00000  0.05    0.35
Q10   1  -0.2205  0.8336  0.9217  11.00000  0.05    0.33
Q11   1   0.0025  1.0312  0.8472  11.00000  0.05    0.31
Q12   1   0.1244  0.4622  0.9669  11.00000  0.05    0.31
Q13   1   0.0509  0.8754  0.8959  11.00000  0.05    0.30
Q14   1   0.0052  0.8548  0.5212  11.00000  0.05    0.30
Q15   1   0.5281  0.9538  0.5995  11.00000  0.05    0.30
Q16   1   0.5044  0.7292  0.4865  11.00000  0.05    0.30
Q17   1   0.7011  0.8696  0.6540  11.00000  0.05    0.28
Q18   1  -0.3096  1.1813  0.8993  11.00000  0.05    0.27
Q19   1   0.2644  0.5687  0.8557  11.00000  0.05    0.27
Q20   1   0.4609  0.7891  0.4194  11.00000  0.05    0.27
;
_shelx_res_checksum              22053
_shelx_hkl_file
;
   1   0   0  469.53   26.53
   1   0   0  493.72   23.66
   2   0   0 6931.70  373.34
   2   0   0 8751.49  418.45
   3   0   0  491.14   27.42
   3   0   0  509.48   24.27
   4   0   0 1635.96   90.89
   4   0   0 1739.74   80.93
   5   0   0  220.48   14.21
   5   0   0  261.07   12.38
   6   0   0   46.34    4.76
   6   0   0   40.55    3.30
   7   0   0  135.44    9.46
   7   0   0  119.29    7.22
   8   0   0   -2.46    4.33
   9   0   0   12.59    5.76
   9  -1   0   14.62    6.05
   8  -1   0  104.22    7.31
   8  -1   0   97.91    9.08
   7  -1   0   81.29    5.63
   7  -1   0   75.02    7.26
   6  -1   0  190.37   10.65
   6  -1   0  211.75   12.90
   5  -1   0  743.71   42.84
   5  -1   0  809.43   37.90
   4  -1   0  781.58   38.18
   4  -1   0  794.62   43.15
   3  -1   0 1580.87   84.91
   3  -1   0 1573.90   75.61
   2  -1   0  293.45   16.46
   2  -1   0  296.08   14.54
   1  -1   0 2709.81  148.46
   1  -1   0 2824.11  132.53
   0  -1   0   18.43    1.03
   1   1   0 1144.64   52.39
   1   1   0 1172.45   58.35
  -1  -1   0  943.12   52.17
   2   1   0 3475.39  162.74
   2   1   0 3347.57  182.32
   3   1   0 2696.10  123.00
   3   1   0 2454.19  137.93
   4   1   0 1517.92   71.94
   4   1   0 1485.69   80.99
   5   1   0  317.17   15.16
   5   1   0  288.95   17.51
   6   1   0  663.08   31.75
   6   1   0  636.80   36.30
   7   1   0    6.07    3.94
   7   1   0    6.03    3.93
   8   1   0   84.12    7.87
   9   1   0    3.75    5.13
   9  -2   0    8.25    3.47
   9  -2   0   15.71    6.36
   8  -2   0    4.84    2.80
   8  -2   0    2.54    4.77
   7  -2   0   42.57    5.85
   7  -2   0   32.62    3.69
   6  -2   0  283.63   15.51
   6  -2   0  327.93   18.40
   5  -2   0  143.83    8.42
   5  -2   0  170.01   10.46
   4  -2   0 1548.92   85.03
   4  -2   0 1592.85   75.59
   3  -2   0  252.65   12.86
   3  -2   0  257.81   14.82
  -2   2   0 7113.35  353.98
   2  -2   0 7032.26  377.03
   2  -2   0 7026.90  336.49
   1  -2   0  749.29   36.05
   1   2   0 5735.03  304.58
   1   2   0 7050.99  341.23
   2   2   0 1101.34   61.02
   2   2   0 1164.45   54.25
   3   2   0 1448.54   68.08
   3   2   0 1399.86   76.77
   4   2   0   50.88    2.85
   4   2   0   37.78    3.81
   5   2   0  720.42   34.29
   5   2   0  699.12   39.18
   6   2   0    2.19    3.09
   7   2   0  280.63   17.35
   8   2   0   15.20    4.58
   9   2   0   24.11    5.82
   8  -3   0   13.13    5.83
   8  -3   0   14.55    3.38
   7  -3   0   47.32    6.83
   7  -3   0   69.77    5.47
   6  -3   0   68.57    6.92
   5  -3   0  196.34   12.53
   5  -3   0  182.97   10.28
   4  -3   0    6.95    3.02
   4  -3   0    8.63    2.10
   3  -3   0  816.48   40.36
   3  -3   0  862.60   45.84
  -3   3   0  819.76   41.95
   2  -3   0   24.23    2.12
   1  -3   0  956.43   46.00
   0  -3   0 2509.72  119.83
   1   3   0  489.66   27.06
   1   3   0  497.73   23.83
   2   3   0 4252.29  203.39
   2   3   0 3358.17  181.23
   3   3   0  412.28   23.01
   4   3   0 1754.40   82.91
   4   3   0 1716.47   93.70
   5   3   0    9.06    2.97
   6   3   0  382.22   22.17
   7   3   0   12.10    3.90
   8   3   0   10.04    4.39
   9   3   0    4.08    4.97
   8  -4   0   18.04    6.70
   8  -4   0   18.24    4.13
   7  -4   0   13.28    3.43
   7  -4   0    9.37    5.53
   6  -4   0  217.29   10.85
   6  -4   0  136.65   12.58
   5  -4   0    0.58    2.31
   5  -4   0    0.10    3.86
   4  -4   0  536.05   30.92
  -3   4   0  277.10   14.45
   1  -4   0  535.74   26.14
   0  -4   0  599.55   29.06
   1   4   0 2933.57  140.72
   1   4   0 2961.56  158.01
   2   4   0   71.47    4.00
   2   4   0   72.34    5.27
   3   4   0  851.15   46.49
   4   4   0  119.33    8.06
   5   4   0  586.56   32.88
   6   4   0   24.74    4.33
   7   4   0  193.39   12.82
   8   4   0   38.88    5.98
   9   4   0   10.30    5.60
   7  -5   0    3.67    3.23
   6  -5   0    5.97    2.92
   5  -5   0   45.34    4.35
   4  -5   0  123.28    7.71
   3  -5   0  196.69   10.75
   2  -5   0  482.14   23.92
   1  -5   0  127.23    6.99
   0  -5   0 1561.57   74.95
   1   5   0   48.29    4.38
   1   5   0   52.50    3.40
   2   5   0  901.75   50.55
   2   5   0  946.46   44.62
   3   5   0   -0.17    2.25
   4   5   0  258.55   15.53
   5   5   0   19.78    3.85
   6   5   0   15.91    4.24
   7   5   0   45.41    5.89
   8   5   0    3.32    4.38
   6  -6   0   43.27    4.67
   5  -6   0   -2.01    2.66
   4  -6   0   82.75    6.07
   3  -6   0   30.69    3.45
   2  -6   0   -1.04    1.90
   1  -6   0   54.90    4.18
   0   6   0   -0.54    1.80
   1   6   0  297.80   17.37
   1   6   0  282.17   14.58
   2   6   0  416.69   23.88
   3   6   0  125.61    8.89
   4   6   0  205.57   13.06
   5   6   0   71.71    6.45
   6   6   0   45.75    5.71
   7   6   0   57.93    6.78
   8   6   0   36.13    6.35
   5  -7   0    0.03    3.01
   4  -7   0   75.51    5.90
   3  -7   0    5.45    2.83
   2  -7   0  135.19    8.17
   1  -7   0    1.75    2.22
   0   7   0  145.90    8.71
   0   7   0  157.96   11.11
   1   7   0    5.89    2.10
   1   7   0    3.02    3.96
   2   7   0   41.87    5.34
   3   7   0   30.07    4.73
   4   7   0    3.42    3.63
   5   7   0   43.72    5.86
   6   7   0    1.54    4.30
   7   7   0   26.95    5.96
   4  -8   0   -3.50    3.03
   3  -8   0    0.62    2.95
  -2   8   0   36.33    7.02
  -1   8   0   -1.20    3.56
   0   8   0   46.44    4.43
   0   8   0   44.75    6.10
   1   8   0   25.19    5.32
   2   8   0  152.37   11.50
   3   8   0   10.76    4.50
   4   8   0   42.96    6.23
   5   8   0    5.21    4.87
   6   8   0    2.44    5.24
  -3   9   0  -16.17   31.74
  -2   9   0   10.18    8.54
  -1   9   0    4.20    5.42
   0   9   0    6.60    5.37
   1   9   0    8.94    5.58
   2   9   0    4.92    5.37
   3   9   0   24.11    6.12
   4   9   0   15.47    5.98
   5   9   0   15.09    6.33
   4   9  -1    8.03    6.36
   3   9  -1    3.76    5.39
   2   9  -1   -0.92    5.58
   1   9  -1    6.10    5.97
   0   9  -1    2.87    5.75
  -1   9  -1    3.27    5.77
  -2   9  -1   24.34    7.60
   6   8  -1    0.54    5.43
   5   8  -1   -2.11    4.95
   4   8  -1   55.43    6.82
   3   8  -1   12.59    4.82
   2   8  -1   14.31    5.38
   1   8  -1    9.70    5.71
   0   8  -1   42.29    6.42
   0   8  -1   39.21    4.21
  -1   8  -1    0.79    3.37
  -2   8  -1    4.71    4.65
  -3   8  -1   -7.95    8.95
  -4   8  -1  119.07   46.48
   7   7  -1    1.93    4.99
   6   7  -1    2.92    4.78
   5   7  -1    1.72    4.00
   4   7  -1   -1.20    3.90
   3   7  -1   18.29    4.55
   2   7  -1    5.40    4.12
   1   7  -1   12.48    4.68
   1   7  -1   13.87    2.60
   0   7  -1   49.59    4.18
  -1   7  -1   63.27    5.12
  -2   7  -1   50.85    5.72
   3  -7   1    4.85    2.89
   4  -7   1    7.15    3.29
   5  -7   1    3.04    3.36
   8   6  -1   11.73    5.35
   7   6  -1   17.37    5.14
   6   6  -1   59.61    6.42
   5   6  -1    0.81    3.45
   4   6  -1   43.42    4.98
   3   6  -1    7.55    3.19
   2   6  -1  162.93   11.02
   1   6  -1  117.53    6.80
   1   6  -1  117.42    6.80
   1   6  -1  108.35    8.69
   0   6  -1   43.19    3.48
  -1   6  -1    9.16    2.47
   2  -6   1  204.38   11.07
   3  -6   1    1.84    2.39
   4  -6   1   39.40    3.93
   5  -6   1   -0.91    2.64
   6  -6   1    8.31    3.51
   8   5  -1    4.88    4.80
   7   5  -1    7.22    4.44
   6   5  -1    2.46    3.70
   5   5  -1    5.24    3.24
   4   5  -1   22.59    3.61
   3   5  -1    3.69    2.68
   2   5  -1  238.71   11.76
   2   5  -1  218.96   13.76
   1   5  -1    5.84    1.55
   1   5  -1    4.46    2.77
   0   5  -1  152.83    8.16
   1  -5   1   -0.76    1.55
   2  -5   1   26.26    2.82
   3  -5   1    9.37    2.27
   4  -5   1   13.13    2.82
   5  -5   1    4.70    2.76
   6  -5   1   16.37    3.35
   7  -5   1    3.89    3.37
   9   4  -1   -2.23    4.93
   8   4  -1   12.88    5.00
   7   4  -1   -0.23    3.65
   6   4  -1   25.79    4.40
   5   4  -1   12.76    3.60
   4   4  -1   41.69    4.20
   3   4  -1   11.27    1.20
   3   4  -1    9.43    2.54
   2   4  -1 1161.48   56.94
   2   4  -1 1210.44   64.25
   1   4  -1 1586.02   76.12
   1   4  -1 1590.21   85.73
   0   4  -1  241.58   12.12
   1  -4   1   34.22    2.57
   2  -4   1  406.89   20.18
   3  -4   1   12.28    2.28
  -3   4  -1   18.76    1.87
   4  -4   1   71.03    5.16
   5  -4   1   11.25    2.57
   5  -4   1   20.30    5.02
   6  -4   1    0.98    4.63
   6  -4   1   -0.66    2.71
   7  -4   1    7.35    3.22
   7  -4   1    8.57    5.77
   8  -4   1    5.87    6.28
   8  -4   1    3.56    3.67
   9   3  -1    8.52    5.25
   8   3  -1    3.46    4.89
   7   3  -1   13.69    4.09
   6   3  -1   78.13    6.67
   5   3  -1   14.06    3.13
   4   3  -1  384.45   17.97
   4   3  -1  350.79   21.02
   3   3  -1   33.25    2.13
   3   3  -1   34.43    3.37
   2   3  -1  428.62   21.49
   2   3  -1  348.47   18.79
   1   3  -1   81.02    5.20
   1   3  -1   77.59    4.28
   0   3  -1    2.73    0.88
   1  -3   1   35.39    2.52
   2  -3   1  603.08   29.36
   3  -3   1   46.87    3.44
  -3   3  -1   46.25    2.90
   3  -3   1   53.00    4.96
   4  -3   1  376.08   21.98
   4  -3   1  375.27   18.86
   5  -3   1    3.49    2.52
   5  -3   1    0.67    3.53
   6  -3   1   99.28    8.67
   6  -3   1  100.86    6.69
   7  -3   1    1.02    2.54
   7  -3   1    1.28    4.57
   8  -3   1   28.35    6.63
   8  -3   1   17.10    3.75
   9   2  -1    2.40    6.41
   8   2  -1   -1.26    4.33
   7   2  -1    2.28    3.90
   6   2  -1   13.40    3.61
   5   2  -1   16.23    1.77
   5   2  -1   15.79    3.12
   4   2  -1  124.09    6.24
   4   2  -1  113.28    7.75
   3   2  -1   62.20    4.58
   3   2  -1   63.23    3.43
   2   2  -1 1162.92   63.43
   2   2  -1 1192.24   56.37
   1   2  -1 3930.29  189.04
   1   2  -1 3996.65  211.78
   0   2  -1  149.90    7.48
   1  -2   1  286.74   14.07
   2  -2   1  527.62   26.25
   2  -2   1  555.02   29.80
   3  -2   1  425.36   21.37
   3  -2   1  448.33   24.43
   4  -2   1    4.91    2.73
   4  -2   1    6.79    1.86
   4  -2   1    6.44    1.83
   5  -2   1  688.82   38.50
   6  -2   1   48.39    4.00
   6  -2   1   36.14    5.40
   7  -2   1   75.86    5.49
   7  -2   1   80.60    7.62
   8  -2   1   16.67    3.40
   8  -2   1   19.96    5.84
   9  -2   1   22.61    4.00
   9  -2   1   26.87    6.90
   9   1  -1   -3.62    5.14
   8   1  -1   12.72    4.55
   7   1  -1   16.00    4.14
   6   1  -1   65.21    5.88
   6   1  -1   68.74    4.44
   5   1  -1  108.12    6.06
   4   1  -1    0.36    0.97
   4   1  -1    1.96    1.94
   3   1  -1  409.76   19.90
   3   1  -1  411.94   22.65
   2   1  -1  590.62   27.98
   2   1  -1  572.87   31.58
   1   1  -1   47.29    2.55
   1   1  -1   45.00    2.92
   0   1  -1 4019.69  191.81
   1  -1   1  153.42    8.84
   1  -1   1  158.56    7.75
   2  -1   1 3646.38  171.47
   2  -1   1 3539.91  192.15
   3  -1   1   53.43    4.34
   3  -1   1   56.99    3.42
   4  -1   1 1473.77   78.20
   4  -1   1 1418.94   69.46
   5  -1   1   11.56    2.95
   5  -1   1    7.80    1.87
   6  -1   1   82.03    6.60
   6  -1   1   69.88    5.03
   7  -1   1   20.37    2.96
   7  -1   1   22.01    4.57
   8  -1   1   16.74    3.14
   8  -1   1   18.23    5.55
   9  -1   1   10.61    5.92
   9   0  -1    1.31    5.36
   8   0  -1    6.30    4.77
   7   0  -1   -0.56    2.05
   7   0  -1    1.00    3.69
   6   0  -1  129.67    8.65
   6   0  -1  121.18    7.07
   5   0  -1   34.28    2.61
   5   0  -1   22.96    3.27
   4   0  -1  662.81   37.89
   4   0  -1  722.47   33.65
   3   0  -1    6.80    1.46
   3   0  -1    2.30    0.92
   2   0  -1 2157.52   99.75
   2   0  -1 2017.92  111.70
   1   0  -1 3835.10  208.42
   1   0  -1 3971.48  186.18
   1   0   1   84.35    4.40
   1   0   1   83.11    4.87
   1   0   1   87.43    4.26
   2   0   1  152.27    8.66
   3   0   1 1870.68   86.49
   3   0   1 1743.73   97.02
   4   0   1  509.06   28.89
   4   0   1  533.89   25.45
   5   0   1  835.52   38.60
   5   0   1  752.36   43.65
   6   0   1  644.73   36.09
   7   0   1  114.47    7.07
   7   0   1  122.27    9.05
   8   0   1   67.65    7.36
   9   0   1   14.49    5.55
   9  -1  -1    3.23    5.61
   8  -1  -1    2.56    4.90
   8  -1  -1    0.11    2.57
   7  -1  -1   19.60    2.96
   7  -1  -1   17.43    4.62
   6  -1  -1   31.74    4.49
   6  -1  -1   30.38    2.90
   5  -1  -1  182.87    9.98
   5  -1  -1  197.22   11.74
   4  -1  -1  343.79   17.07
   4  -1  -1  342.28   19.49
   3  -1  -1  247.24   14.59
   3  -1  -1  269.48   12.97
   2  -1  -1 3217.62  175.78
   2  -1  -1 3359.82  156.98
   1  -1  -1  295.85   14.73
  -1   1   1  309.95   15.45
   0  -1  -1 2199.91  117.43
   0   1   1 2723.41  123.66
   1   1   1   47.08    2.90
   2   1   1 5386.27  274.21
   2   1   1 5381.05  274.21
   2   1   1 6497.83  307.27
   3   1   1   23.10    1.68
   3   1   1   21.43    2.25
   4   1   1  898.41   47.77
   4   1   1  859.84   42.22
   5   1   1  206.82   10.51
   5   1   1  206.99   12.50
   6   1   1   19.50    3.54
   6   1   1   20.57    2.30
   7   1   1  139.14    9.90
   8   1   1   -3.20    4.29
   9   1   1   40.47    7.03
   9  -2  -1    5.07    5.88
   8  -2  -1   48.31    6.94
   7  -2  -1    7.04    2.54
   7  -2  -1   11.40    4.48
   6  -2  -1  434.49   24.23
   6  -2  -1  396.46   20.89
   5  -2  -1   19.99    2.45
   5  -2  -1   20.67    3.61
   4  -2  -1  454.27   22.70
   4  -2  -1  465.83   25.83
   3  -2  -1  180.32    9.42
   3  -2  -1  185.51   10.94
   2  -2  -1 2104.90   99.70
  -2   2   1 2066.09  104.66
   2  -2  -1 2079.27  111.79
  -1   2   1 1083.97   55.46
   1  -2  -1 1116.36   52.83
   0  -2  -1  212.35   10.43
   1   2   1   75.65    5.35
  -1  -2  -1  104.06    4.55
   2   2   1  864.98   46.72
   3   2   1 1053.89   57.73
   3   2   1 1081.96   51.08
   4   2   1 2052.21  112.88
   4   2   1 2145.83  100.29
   5   2   1  718.17   38.35
   5   2   1  674.06   33.42
   6   2   1 1131.89   61.91
   7   2   1   34.12    5.09
   8   2   1  161.81   11.93
   9   2   1    4.92    5.33
   8  -3  -1   -1.16    3.33
   8  -3  -1    4.30    5.40
   8  -3  -1   -1.17    3.33
   7  -3  -1    2.83    2.74
   7  -3  -1    9.71    4.80
   6  -3  -1   34.92    3.77
   6  -3  -1   41.95    5.45
   5  -3  -1   18.91    3.95
   5  -3  -1   15.38    2.69
   4  -3  -1  644.48   32.24
   4  -3  -1  672.47   36.72
   3  -3  -1  154.47    9.50
   3  -3  -1  134.24    7.83
  -3   3   1  150.15    7.85
  -2   3   1 1766.09   87.77
   2  -3  -1 1721.66   83.64
   1  -3  -1   42.44    2.79
   0  -3  -1 3539.56  168.87
  -1  -3  -1  569.47   27.23
   1   3   1  564.27   30.81
   2   3   1 2718.83  145.59
   3   3   1  519.32   28.62
   4   3   1  161.08   10.09
   5   3   1  567.19   31.64
   6   3   1   11.57    3.38
   7   3   1  169.14   11.80
   7   3   1  168.62   11.79
   8   3   1    9.69    4.58
   9   3   1   50.29    6.71
   8  -4  -1   32.39    4.70
   7  -4  -1    7.79    3.03
   7  -4  -1    9.45    5.39
   6  -4  -1   46.01    4.31
   6  -4  -1   62.55    6.80
   5  -4  -1   67.09    6.79
   4  -4  -1   18.75    2.64
   4  -4  -1   22.78    4.34
   3  -4  -1  231.22   12.32
  -3   4   1  239.79   12.50
  -2   4   1   14.54    1.86
   2  -4  -1   11.31    1.95
   1  -4  -1 1578.18   75.74
  -1  -4  -1 1324.83   63.59
   1   4   1 1332.97   71.65
   2   4   1  669.36   31.87
   2   4   1  656.14   36.24
   3   4   1  481.42   26.74
   4   4   1 1607.61   86.95
   5   4   1  223.70   13.76
   6   4   1  516.79   29.36
   7   4   1   42.24    5.36
   8   4   1   41.84    6.68
   9   4   1   10.18    5.38
   7  -5  -1    3.05    3.22
   6  -5  -1   84.85    6.62
   5  -5  -1    0.16    2.57
   4  -5  -1  729.57   36.10
   4  -5  -1  735.50   36.11
  -3   5   1    5.47    1.96
   3  -5  -1    3.78    1.98
  -2   5   1  795.65   46.68
   2  -5  -1 1050.40   44.73
   1  -5  -1  216.50   11.19
   0  -5  -1  810.08   39.17
  -1  -5  -1  358.12   17.50
   1   5   1  354.84   20.21
   2   5   1   95.64    5.13
   2   5   1   89.68    6.53
   3   5   1  592.72   32.87
   4   5   1    0.66    2.69
   5   5   1  237.33   14.69
   6   5   1   79.12    6.97
   7   5   1   97.85    8.49
   8   5   1    9.75    5.05
   6  -6  -1   -1.59    3.05
   5  -6  -1   16.01    3.37
   3  -6  -1  113.99    7.42
  -2   6   1  136.49    7.97
   2  -6  -1  116.01    7.40
   1  -6  -1  938.76   45.59
   0  -6  -1  346.59   17.32
   1   6   1  319.50   15.87
   1   6   1  313.09   18.55
   2   6   1  687.32   38.08
   3   6   1   37.42    4.11
   4   6   1  287.27   17.21
   5   6   1   20.17    4.08
   6   6   1  105.05    8.72
   7   6   1   98.48    8.57
   8   6   1    6.82    4.82
   5  -7  -1    6.15    3.39
   4  -7  -1   81.58    6.14
   3  -7  -1   13.90    3.18
   2  -7  -1   63.55    5.09
  -2   7   1   78.13    5.98
   1  -7  -1   55.49    4.22
   0  -7  -1    0.69    1.95
   0   7   1   -0.38    3.55
   1   7   1  349.40   19.97
   1   7   1  319.66   16.78
   2   7   1   20.16    3.99
   3   7   1  249.35   15.31
   4   7   1   54.87    5.83
   5   7   1  182.23   12.24
   6   7   1   52.62    6.29
   7   7   1   46.91    6.33
   4  -8  -1   21.67    4.09
   3  -8  -1   33.15    4.19
   2  -8  -1   80.48    6.13
   1  -8  -1   82.91    6.15
   0   8   1  265.16   14.33
   0   8   1  262.14   16.96
   1   8   1   10.35    4.50
   2   8   1  137.71   10.09
   3   8   1   10.91    4.20
   4   8   1   15.25    4.63
   5   8   1   20.51    5.28
   6   8   1    4.43    5.07
   3  -9  -1    1.72    3.47
  -2   9   1   11.49   12.76
   0   9   1   30.68    6.02
   1   9   1  115.03   10.09
   2   9   1   39.75    6.07
   3   9   1   64.12    7.12
   4   9   1   30.65    6.08
   5   9   1   28.45    6.45
   0  10   1   22.22   10.32
   2  10   1    5.54    5.48
   4   9  -2    4.18    6.29
   3   9  -2   39.86    7.60
   2   9  -2   12.10    6.66
   1   9  -2   24.33    7.46
   0   9  -2   31.36    7.26
  -2   9  -2   26.35    6.52
   6   8  -2   35.14    6.66
   5   8  -2    9.23    5.36
   4   8  -2   80.31    8.54
   3   8  -2   71.20    8.23
   2   8  -2  296.70   19.35
   1   8  -2   17.48    6.26
   0   8  -2   51.83    7.60
  -1   8  -2    5.07    3.41
  -2   8  -2   12.89    4.70
  -3   8  -2   15.90    6.90
  -4   8  -2   11.64   14.67
   7   7  -2    7.21    5.42
   6   7  -2    5.65    4.76
   5   7  -2   64.08    6.91
   4   7  -2   44.56    6.02
   3   7  -2  203.34   13.94
   2   7  -2   45.88    6.01
   1   7  -2  193.24   10.91
   1   7  -2  199.94   13.91
   0   7  -2  123.99    7.60
  -1   7  -2  117.44    7.57
  -2   7  -2   43.49    4.98
  -3   7  -2   23.73    5.80
  -4   7  -2   32.99    9.95
  -5   7  -2   24.15   25.84
   7   6  -2    9.03    4.92
   6   6  -2  145.83   10.82
   5   6  -2    5.32    3.90
   4   6  -2  156.16   10.69
   3   6  -2    3.39    3.52
   2   6  -2  442.44   25.90
   2   6  -2  447.46   22.34
   1   6  -2  690.77   34.19
   1   6  -2  704.92   39.41
   0   6  -2   35.20    3.21
  -1   6  -2   90.29    5.94
  -2   6  -2    2.84    2.77
   3  -6   2   93.19    6.36
   4  -6   2    4.48    2.64
   5  -6   2   32.93    4.15
   6  -6   2   -1.96    2.93
   8   5  -2    5.38    4.93
   7   5  -2   33.08    5.35
   6   5  -2   46.68    5.75
   5   5  -2  286.29   17.35
   4   5  -2   78.49    6.77
   3   5  -2  350.56   20.33
   2   5  -2  256.02   16.00
   2   5  -2  280.57   13.85
   1   5  -2  339.97   19.68
   1   5  -2  331.63   16.79
   0   5  -2  181.77    9.59
  -1   5  -2    0.74    1.69
   2  -5   2  145.40    8.11
   3  -5   2   -1.94    1.92
   4  -5   2   26.76    3.37
   5  -5   2   36.58    3.98
   6  -5   2   -0.22    2.72
   7  -5   2   10.00    3.67
   8   4  -2   31.92    5.94
   7   4  -2   -1.50    3.62
   6   4  -2   98.14    8.12
   5   4  -2   29.94    4.32
   4   4  -2   31.94    3.78
   3   4  -2  478.30   26.71
   3   4  -2  474.36   23.22
   2   4  -2   79.78    5.83
   2   4  -2   79.66    4.85
   1   4  -2 2880.55  138.09
   1   4  -2 2896.31  155.15
   0   4  -2  275.24   13.79
  -1   4  -2 1134.99   54.75
   2  -4   2    0.34    1.62
   3  -4   2  272.29   13.99
   4  -4   2   24.28    2.87
   5  -4   2  104.39    6.93
   5  -4   2  130.75    9.66
   6  -4   2    1.77    5.05
   6  -4   2    3.42    2.80
   7  -4   2   -0.75    2.97
   7  -4   2   -2.83    5.32
   8  -4   2   15.21    4.08
   8  -4   2   13.32    6.83
   9   3  -2   13.87    5.84
   8   3  -2   22.98    5.40
   7   3  -2   91.02    7.71
   6   3  -2  103.69    8.16
   5   3  -2  230.28   14.04
   4   3  -2  438.43   25.72
   4   3  -2  473.20   22.24
   3   3  -2  531.88   30.11
   3   3  -2  556.80   26.38
   2   3  -2  230.55   12.69
   2   3  -2  207.73   11.07
   1   3  -2   10.17    1.99
   1   3  -2   11.63    1.34
   0   3  -2  226.16   11.30
  -1   3  -2   34.64    2.51
   2  -3   2  141.41    7.59
   3  -3   2   83.05    6.67
   3  -3   2   73.98    4.93
   4  -3   2   70.85    6.14
   4  -3   2   68.59    4.70
   5  -3   2   93.72    7.82
   5  -3   2   85.80    5.89
   6  -3   2    6.58    2.66
   6  -3   2    7.35    4.64
   7  -3   2    8.73    5.27
   7  -3   2    4.22    2.88
   8  -3   2    0.21    3.18
   8  -3   2   -0.08    5.28
   9   2  -2    2.53    5.05
   8   2  -2   16.19    4.86
   7   2  -2   -1.18    3.32
   6   2  -2    4.39    3.04
   5   2  -2  208.18   10.41
   5   2  -2  199.34   12.46
   4   2  -2  284.04   16.55
   4   2  -2  288.45   14.13
   3   2  -2  578.97   32.00
   3   2  -2  585.36   28.12
   2   2  -2  335.47   18.85
   2   2  -2  341.99   16.63
   1   2  -2 3580.04  171.35
   1   2  -2 3598.36  191.93
   0   2  -2 1781.37   85.20
  -1   2  -2  517.27   25.08
   2  -2   2    7.60    2.05
   2  -2   2    7.20    1.34
   3  -2   2   68.89    4.20
   3  -2   2   65.46    5.30
   4  -2   2  114.94    8.07
   4  -2   2  119.77    6.77
   5  -2   2   63.31    5.97
   5  -2   2   59.03    4.55
   6  -2   2   -4.46    2.11
   6  -2   2    2.25    3.79
   7  -2   2    1.16    4.25
   7  -2   2    2.70    2.55
   8  -2   2    3.47    2.88
   8  -2   2    5.18    5.29
   9   1  -2   23.92    5.98
   7   1  -2   34.62    5.12
   6   1  -2  139.41    9.11
   6   1  -2  117.08    7.12
   5   1  -2  156.21    9.97
   5   1  -2  160.61    8.38
   4   1  -2   95.94    5.25
   4   1  -2   92.87    6.30
   3   1  -2  388.54   18.94
   3   1  -2  388.18   21.57
   2   1  -2    1.46    0.77
   2   1  -2    2.38    1.21
   1   1  -2    7.60    1.05
   1   1  -2    9.27    1.22
   0   1  -2    7.64    0.84
  -1   1  -2  354.25   16.80
   1  -1   2  335.56   19.02
   2  -1   2   18.91    1.58
   2  -1   2   18.00    2.08
   3  -1   2  507.84   28.59
   3  -1   2  528.52   25.27
   4  -1   2   25.33    2.46
   4  -1   2   25.84    3.27
   5  -1   2  164.82   10.86
   5  -1   2  174.62    9.20
   6  -1   2    4.83    3.35
   6  -1   2   -1.63    1.89
   7  -1   2   -0.41    2.15
   7  -1   2    1.61    3.88
   8  -1   2    2.17    2.55
   8  -1   2   -2.50    4.46
   9  -1   2    4.48    5.57
   9   0  -2    6.73    5.53
   8   0  -2    7.64    4.68
   7   0  -2   26.52    4.50
   7   0  -2   20.29    2.85
   6   0  -2    1.37    1.77
   6   0  -2    1.60    2.95
   5   0  -2  112.67    6.51
   5   0  -2  114.58    7.84
   4   0  -2  377.00   18.61
   3   0  -2   20.57    2.26
   3   0  -2   25.40    1.87
   2   0  -2  126.65    7.29
   2   0  -2  127.44    6.48
   1   0  -2   39.35    2.45
   0   0  -2  284.05   13.56
   0   0   2  267.45   14.23
   1   0   2  849.34   45.14
  -1   0  -2  830.37   40.23
   2   0   2  241.83   11.73
   2   0   2  239.40   12.19
   2   0   2  233.58   13.34
   3   0   2    1.97    1.05
   3   0   2    3.04    0.74
   3   0   2    1.86    1.57
   4   0   2  118.55    6.22
   4   0   2  114.20    6.34
   4   0   2  118.49    7.65
   5   0   2   59.43    4.09
   5   0   2   64.84    5.36
   6   0   2   59.17    5.45
   6   0   2   40.71    3.44
   7   0   2   -2.05    3.59
   7   0   2    2.05    2.05
   8   0   2    7.72    4.95
   9   0   2   18.68    6.15
   9  -1  -2   12.08    5.90
   8  -1  -2    0.79    4.60
   8  -1  -2    1.71    2.69
   7  -1  -2    4.66    2.44
   7  -1  -2    7.68    4.33
   6  -1  -2   -1.26    3.17
   6  -1  -2    0.67    1.90
   5  -1  -2   19.30    2.48
   5  -1  -2   20.71    3.48
   4  -1  -2   16.05    1.86
   4  -1  -2   12.39    2.51
   3  -1  -2    0.52    1.00
   3  -1  -2   -0.62    1.40
   2  -1  -2   22.54    1.81
   1  -1  -2  751.44   40.50
  -1   1   2  756.07   38.19
   1  -1  -2  757.17   36.25
   0   1   2    1.48    0.66
   0  -1  -2    1.32    0.41
   0   1   2    1.24    0.25
   0  -1  -2    0.53    0.23
  -1  -1  -2  448.38   23.57
   1   1   2  509.66   24.80
   1   1   2  508.02   26.36
  -2  -1  -2   50.40    2.74
   3   1   2  160.25    9.57
   3   1   2  165.05    8.16
   4   1   2   73.57    5.29
   4   1   2   72.73    4.17
   5   1   2    7.17    1.56
   5   1   2    5.66    2.50
   6   1   2   33.25    4.34
   6   1   2   39.69    2.97
   7   1   2   70.71    6.77
   8   1   2   23.23    5.35
   9   1   2   13.06    5.86
   8  -2  -2    2.17    5.08
   8  -2  -2    2.81    2.92
   7  -2  -2   27.59    3.57
   7  -2  -2   30.22    5.28
   6  -2  -2   27.28    4.56
   6  -2  -2   24.35    3.09
   5  -2  -2   11.36    3.33
   5  -2  -2   13.38    2.17
   4  -2  -2   11.17    2.70
   4  -2  -2   16.64    2.15
   3  -2  -2  211.80   10.80
   3  -2  -2  155.13    9.33
   2  -2  -2  638.22   31.35
  -2   2   2  656.13   32.87
   1  -2  -2  119.44    6.16
  -1   2   2  120.23    6.49
   0  -2  -2 1430.89   68.09
   0   2   2 1416.45   71.70
  -1  -2  -2  300.31   14.63
   1   2   2  302.20   16.58
   2   2   2  367.24   20.29
  -3  -2  -2   35.05    2.03
   3   2   2   34.54    3.04
   4   2   2  179.86    8.91
   4   2   2  177.30   10.67
   5   2   2    1.49    1.17
   5   2   2    7.97    2.58
   5   2   2    8.11    2.57
   6   2   2   45.30    5.02
   7   2   2   20.00    4.18
   8   2   2    0.97    4.34
   9   2   2   14.03    5.83
   8  -3  -2    2.53    3.31
   8  -3  -2    2.55    3.30
   8  -3  -2    4.03    5.46
   7  -3  -2    0.62    4.52
   7  -3  -2   -2.92    2.47
   6  -3  -2   13.57    2.88
   6  -3  -2   12.14    4.24
   5  -3  -2    0.63    2.03
   5  -3  -2    2.31    3.32
   4  -3  -2   43.99    4.25
   4  -3  -2   32.87    3.20
   3  -3  -2   59.86    5.07
  -3   3   2   54.61    3.71
   3  -3  -2   48.72    3.93
  -2   3   2    2.03    1.30
   2  -3  -2    1.53    1.35
   1  -3  -2    9.30    1.55
  -1   3   2    6.38    1.25
  -1  -3  -2  612.17   28.76
   1   3   2  583.26   32.42
   2   3   2   77.74    5.03
   3   3   2  467.24   25.83
   4   3   2  308.61   17.68
   5   3   2  207.77   12.75
   7   3   2   73.54    6.62
   8   3   2   43.62    6.16
   9   3   2    9.69    5.45
   8  -4  -2    4.05    3.61
   7  -4  -2    3.80    5.34
   7  -4  -2   13.56    3.38
   6  -4  -2   -0.44    4.13
   6  -4  -2   -1.57    2.47
   5  -4  -2    4.85    3.71
   5  -4  -2   -0.02    2.21
   4  -4  -2  111.49    8.24
   4  -4  -2   97.97    6.30
  -3   4   2   49.97    3.51
   3  -4  -2   43.43    3.50
   2  -4  -2  992.25   48.10
  -2   4   2  996.38   50.43
  -1   4   2   39.99    3.21
   1  -4  -2   41.37    3.09
   0  -4  -2  919.22   44.25
  -1  -4  -2  258.89   12.62
   1   4   2  254.72   14.49
   2   4   2  239.31   13.64
   2   4   2  237.74   11.58
   3   4   2   55.33    4.65
   4   4   2  339.18   19.41
   5   4   2    0.94    2.62
   6   4   2    9.30    3.32
   7   4   2    2.95    3.96
   8   4   2    4.32    4.49
   9   4   2   12.43    5.55
   7  -5  -2    2.99    3.14
   6  -5  -2   13.70    3.34
   5  -5  -2    2.19    2.50
   4  -5  -2   34.97    3.54
   3  -5  -2    2.07    2.05
  -3   5   2    4.47    1.93
   2  -5  -2   11.83    2.18
  -2   5   2   10.75    2.24
   1  -5  -2  246.72   12.73
  -1   5   2  252.93   13.47
   0  -5  -2  101.30    5.63
  -1  -5  -2  290.37   14.28
   1   5   2  288.28   16.51
   2   5   2  383.06   18.07
   2   5   2  356.16   20.83
   3   5   2  407.16   22.97
   4   5   2  184.78   11.47
   5   5   2   10.92    3.30
   6   5   2  123.43    8.95
   7   5   2   21.01    4.78
   8   5   2   17.56    5.26
   6  -6  -2    9.10    3.74
   5  -6  -2   15.00    3.29
   4  -6  -2   86.98    6.18
   3  -6  -2   33.51    3.56
  -2   6   2  348.50   19.30
   2  -6  -2  375.99   18.43
  -1   6   2  103.79    6.68
   1  -6  -2   99.69    6.13
   0   6   2   85.53    6.49
   0  -6  -2   76.39    4.91
  -1  -6  -2    5.53    1.49
   1   6   2    6.65    2.61
   2   6   2   93.44    6.79
   3   6   2   29.09    3.79
   4   6   2   60.29    5.54
   5   6   2  228.35   14.41
   6   6   2   -1.43    3.74
   7   6   2   22.01    4.82
   8   6   2    1.73    4.92
   5  -7  -2   -0.65    3.19
   4  -7  -2    4.47    2.98
   3  -7  -2   15.68    3.44
   2  -7  -2   48.63    4.27
  -2   7   2   50.58    4.97
   1  -7  -2   37.73    3.53
  -1   7   2   37.74    4.33
   0   7   2  257.46   15.31
   0  -7  -2  244.54   12.95
   1   7   2  227.30   11.69
   1   7   2  214.95   13.77
   2   7   2  105.08    7.92
   3   7   2   77.85    6.67
   4   7   2  141.40    9.78
   5   7   2    4.41    3.70
   6   7   2   36.01    5.63
   7   7   2    2.07    4.43
   4  -8  -2   49.72    5.19
   3  -8  -2   10.47    3.40
   2  -8  -2   43.36    4.34
   1  -8  -2    4.73    2.67
  -1   8   2    5.37    3.97
  -1   8   2    2.67    4.20
   0   8   2   10.85    4.37
   1   8   2   43.03    5.38
   2   8   2    0.63    3.62
   3   8   2  133.56    9.86
   4   8   2    9.21    4.26
   5   8   2  154.29   11.44
   6   8   2   -3.94    4.67
   3  -9  -2   -0.68    3.44
   2  -9  -2   32.66    4.27
   0   9   2   63.28    7.83
   1   9   2   85.20    7.99
   2   9   2   26.61    5.20
   3   9   2    4.17    4.56
   4   9   2   32.88    5.88
   5   9   2    0.86    5.04
   0  10   2   13.26    8.78
   1  10   2   14.92    7.42
   3   9  -3   55.29    8.99
   2   9  -3   33.74    7.93
   1   9  -3   24.61    7.92
   0   9  -3   30.90    7.81
   5   8  -3   -0.29    5.14
   4   8  -3    4.54    5.61
   3   8  -3  110.16   10.54
   2   8  -3   59.47    8.30
   1   8  -3   75.25    9.34
   0   8  -3   -0.05    5.45
  -1   8  -3  143.13    9.51
  -2   8  -3    2.37    4.20
  -3   8  -3   99.49    9.26
  -4   8  -3   31.07   11.03
   6   7  -3   53.68    7.25
   5   7  -3   94.91    8.80
   4   7  -3  163.52   11.92
   3   7  -3  137.09   10.97
   2   7  -3  244.40   16.50
   1   7  -3   10.57    2.99
   1   7  -3   11.88    5.11
   0   7  -3  162.40    9.57
  -1   7  -3   16.88    3.12
  -2   7  -3   57.31    5.35
  -3   7  -3  127.01    9.54
  -4   7  -3    6.06    6.89
  -5   7  -3   62.93   14.08
   7   6  -3   11.72    5.00
   6   6  -3    6.02    4.35
   5   6  -3   37.01    5.56
   4   6  -3    0.98    3.39
   3   6  -3  346.23   20.71
   2   6  -3  214.26   11.60
   2   6  -3  207.22   13.82
   1   6  -3  288.15   17.79
   1   6  -3  279.47   14.78
   0   6  -3   11.71    2.43
  -1   6  -3  185.96   10.27
  -2   6  -3  106.96    6.88
  -3   6  -3  182.36   10.88
  -4   6  -3  174.67   11.93
  -5   6  -3    2.59    7.09
  -6   6  -3   76.47   14.41
   8   5  -3   27.02    5.64
   7   5  -3   48.38    6.11
   6   5  -3  234.89   15.13
   5   5  -3  129.97    9.66
   4   5  -3  379.12   22.07
   3   5  -3    5.06    3.09
   2   5  -3  540.97   31.15
   2   5  -3  560.13   27.33
   1   5  -3  240.04   15.31
   1   5  -3  252.10   12.82
   0   5  -3  244.67   12.73
  -1   5  -3 1124.99   54.48
  -2   5  -3   93.80    5.98
  -3   5  -3  563.98   28.31
  -4   5  -3    5.84    3.54
   5  -5   3  114.15    7.51
  -6   5  -3    4.85    6.79
  -7   5  -3   59.14   12.39
   8   4  -3    7.11    4.82
   7   4  -3   86.32    7.66
   6   4  -3    4.13    3.76
   5   4  -3  144.05   10.00
   4   4  -3   68.13    5.72
   3   4  -3 1206.70   59.88
   3   4  -3 1284.31   67.67
   2   4  -3  206.17   12.57
   2   4  -3  208.69   11.00
   1   4  -3  534.79   26.24
   0   4  -3  413.22   20.31
   0   4  -3  406.27   20.29
  -1   4  -3  458.20   22.61
  -2   4  -3  425.82   21.25
   3  -4   3    1.50    1.97
   4  -4   3  614.66   30.41
   5  -4   3  115.14    9.55
   5  -4   3  108.44    6.94
   6  -4   3   51.16    7.29
   6  -4   3   44.91    4.45
   7  -4   3   14.03    6.43
   7  -4   3   16.12    3.72
  -8   4  -3   39.72    8.76
   8  -4   3   13.56    7.00
   9   3  -3   10.48    5.62
   7   3  -3   32.61    4.95
   6   3  -3  298.47   17.92
   5   3  -3   46.68    4.87
   4   3  -3  923.96   43.90
   4   3  -3  895.95   49.89
   3   3  -3  471.60   22.96
   3   3  -3  468.57   26.24
   2   3  -3  201.64   11.99
   2   3  -3  205.96   10.59
   1   3  -3 3384.76  161.73
   0   3  -3  190.03    9.70
  -1   3  -3 3288.10  157.14
  -2   3  -3   78.87    4.85
   3  -3   3 1143.34   55.27
   4  -3   3    9.85    2.26
   4  -3   3    5.52    3.56
   5  -3   3  162.18   10.95
   5  -3   3  146.98    8.73
   6  -3   3    6.40    4.62
   6  -3   3    3.76    2.42
   7  -3   3   13.84    3.34
   7  -3   3   21.76    6.02
   8  -3   3   13.88    5.99
   8  -3   3    7.99    3.54
   8   2  -3    8.38    4.69
   7   2  -3  179.12   12.26
   6   2  -3  100.55    7.92
   5   2  -3  811.13   45.52
   5   2  -3  841.96   40.05
   4   2  -3  170.07   10.71
   4   2  -3  177.05    8.98
   3   2  -3 2945.83  161.76
   3   2  -3 3089.10  144.20
   2   2  -3 1126.19   55.28
   2   2  -3 1172.52   62.04
   1   2  -3 1984.71   96.36
   1   2  -3 2038.07  107.95
   0   2  -3  655.18   31.72
  -1   2  -3    8.01    1.22
   2  -2   3  496.11   27.42
  -2   2  -3  485.26   23.98
   3  -2   3  991.45   55.28
   3  -2   3 1032.23   48.95
   4  -2   3  620.44   28.74
   4  -2   3  543.87   32.71
   5  -2   3  829.38   45.44
   5  -2   3  807.10   39.90
   6  -2   3    2.52    3.65
   6  -2   3    1.80    2.26
   7  -2   3  101.70    8.53
   7  -2   3   87.42    6.40
   8  -2   3   17.03    3.53
   8  -2   3   18.47    5.54
   9   1  -3    4.60    5.49
   8   1  -3   57.27    6.79
   7   1  -3   16.84    4.46
   6   1  -3  258.09   13.33
   5   1  -3  316.05   18.43
   5   1  -3  319.77   15.95
   4   1  -3  435.10   21.10
   4   1  -3  424.02   24.00
   3   1  -3 1504.17   80.89
   3   1  -3 1500.06   72.01
   2   1  -3   18.36    1.58
   2   1  -3   19.27    1.95
   1   1  -3 5198.46  262.77
   1   1  -3 4638.49  234.72
   0   1  -3  141.38    7.32
  -1   1  -3 5423.65  258.70
   2  -1   3   40.14    3.45
  -2   1  -3   36.36    2.52
   3  -1   3 2237.78  106.72
   3  -1   3 2220.71  119.84
   4  -1   3  142.03    7.59
   4  -1   3  136.01    8.97
   5  -1   3   81.13    6.33
   5  -1   3   75.64    4.89
   6  -1   3  114.76    7.04
   6  -1   3  129.10    9.16
   7  -1   3    0.55    4.10
   7  -1   3   12.72    2.68
   8  -1   3   17.20    5.48
   8  -1   3   20.82    3.32
   9  -1   3   -1.66    5.53
   9   0  -3   58.29    8.00
   8   0  -3   26.02    5.64
   7   0  -3  176.70   12.10
   7   0  -3  173.79    9.72
   6   0  -3  163.11   10.71
   6   0  -3  158.94    8.95
   5   0  -3  483.64   23.64
   5   0  -3  472.10   26.81
   4   0  -3  480.70   27.04
   4   0  -3  496.20   23.98
   3   0  -3  613.18   29.52
   3   0  -3  602.33   33.11
   2   0  -3 3770.11  180.85
   2   0  -3 3808.06  202.47
   1   0  -3   15.96    1.34
   0   0  -3  356.35   17.55
  -1   0  -3 4051.17  191.73
   1   0   3 4263.77  214.75
   1   0   3 3742.32  201.72
  -2   0  -3  239.69   11.94
   2   0   3  235.08   13.56
   2   0   3  250.79   12.52
  -3   0  -3 1496.43   72.36
   3   0   3 1482.43   81.31
   3   0   3 1549.38   75.98
   4   0   3  260.84   12.82
   4   0   3  237.52   12.49
   4   0   3  242.84   14.49
   5   0   3 1064.58   51.40
   5   0   3 1064.78   58.17
   6   0   3   -2.92    2.97
   6   0   3    1.37    1.78
   7   0   3   25.11    4.90
   7   0   3   25.69    2.88
   8   0   3    0.71    4.44
   9   0   3   13.56    5.95
   9  -1  -3    0.29    5.44
   8  -1  -3    4.31    4.88
   8  -1  -3    4.35    2.85
   7  -1  -3   61.61    4.73
   7  -1  -3   60.24    6.49
   6  -1  -3   78.69    6.48
   6  -1  -3   66.02    4.96
   5  -1  -3  471.23   23.39
   5  -1  -3  468.65   26.46
   4  -1  -3   21.93    2.78
   4  -1  -3   14.60    2.02
   3  -1  -3 2732.83  150.27
   3  -1  -3 2882.45  134.29
   2  -1  -3    3.36    1.00
   2  -1  -3    4.38    1.06
   1  -1  -3 5736.57  312.26
  -1   1   3 5618.22  293.32
   1  -1  -3 6183.09  278.81
   0  -1  -3  587.41   31.25
   0   1   3  582.46   29.47
   0  -1  -3  578.54   27.95
   0   1   3  570.21   31.27
   1   1   3 9999.89  501.21
   2   1   3  281.46   13.97
   2   1   3  264.07   14.96
  -2  -1  -3  266.90   13.22
  -3  -1  -3  709.58   34.31
   3   1   3  715.92   36.11
   4   1   3  547.04   28.09
  -4  -1  -3  556.30   26.78
   5   1   3    0.77    2.63
   5   1   3    3.47    1.48
   5   1   3    0.08    1.36
   6   1   3   90.42    5.44
   6   1   3   95.45    7.21
   7   1   3    4.84    3.76
   8   1   3   35.99    5.99
   9   1   3    0.58    5.24
   8  -2  -3   36.09    6.20
   8  -2  -3   27.55    4.00
   7  -2  -3   33.41    5.34
   7  -2  -3   23.15    3.33
   6  -2  -3   53.64    5.61
   6  -2  -3   46.17    4.09
   5  -2  -3    4.34    2.32
   5  -2  -3    3.36    2.91
   4  -2  -3  507.57   28.23
   4  -2  -3  505.98   25.05
   3  -2  -3   33.33    2.61
   2  -2  -3 1118.55   54.01
   2  -2  -3 1140.21   60.43
  -2   2   3 1108.74   56.81
  -1   2   3 1368.40   69.88
   1  -2  -3 1404.09   66.44
   0  -2  -3 1028.48   48.78
   0   2   3  996.24   51.38
   0   2   3 1027.08   54.48
  -1  -2  -3 2243.34  105.90
   1   2   3 2148.07  111.50
   1   2   3 2261.79  118.60
  -2  -2  -3   51.91    2.85
   2   2   3   51.06    3.52
  -3  -2  -3  351.58   17.03
   3   2   3  350.44   19.49
   4   2   3   84.86    6.04
  -4  -2  -3   92.64    4.82
   5   2   3  210.10   13.30
  -5  -2  -3  230.45   11.18
   6   2   3   47.47    5.04
   7   2   3    9.15    4.02
   8   2   3   -1.34    4.37
   9   2   3    3.05    5.34
   8  -3  -3    3.46    3.38
   7  -3  -3   80.18    6.55
   7  -3  -3  104.55    8.63
   6  -3  -3    4.17    4.01
   6  -3  -3    5.39    2.58
   5  -3  -3  494.18   30.08
   5  -3  -3  567.54   26.61
   4  -3  -3    1.69    2.59
   4  -3  -3    1.31    1.86
  -3   3   3  920.70   44.55
   3  -3  -3  825.75   47.71
  -2   3   3  133.67    7.53
   2  -3  -3  137.25    7.30
   1  -3  -3  870.06   41.74
  -1   3   3  860.16   43.89
   0   3   3  321.44   18.34
   0   3   3  337.40   17.48
   0  -3  -3  354.46   16.52
  -1  -3  -3   10.29    1.00
   1   3   3    8.83    1.34
   2   3   3  246.55   13.64
  -2  -3  -3  238.51   11.67
   3   3   3   14.90    2.23
   4   3   3  359.54   20.29
   5   3   3   78.05    6.04
   6   3   3   99.23    8.02
   7   3   3   19.76    4.30
   8   3   3   29.53    5.46
   9   3   3    1.81    4.88
   8  -4  -3    9.50    3.71
   7  -4  -3    0.78    3.09
   6  -4  -3    4.38    4.28
   6  -4  -3    1.04    2.59
   5  -4  -3   10.23    2.66
   5  -4  -3    5.00    3.78
   4  -4  -3   25.47    2.87
   4  -4  -3   23.58    3.64
   3  -4  -3  269.26   13.75
  -3   4   3  259.92   14.06
   2  -4  -3  118.24    7.98
  -2   4   3  160.90    8.33
  -2   4   3  160.78    8.33
  -1   4   3  973.97   49.94
   1  -4  -3  992.29   47.52
   0  -4  -3   55.56    3.31
   0   4   3   46.13    3.46
   0   4   3   45.70    3.42
   1   4   3 1054.18   57.47
  -1  -4  -3 1078.59   51.15
   2   4   3    2.49    1.50
  -2  -4  -3    2.01    0.65
   3   4   3    5.78    2.03
   4   4   3    2.34    2.39
   5   4   3    6.89    2.83
   6   4   3   17.38    3.70
   7   4   3   55.46    6.22
   7   4   3   56.12    6.23
   8   4   3    1.44    4.71
   9   4   3    4.42    4.92
   7  -5  -3   39.31    4.74
   6  -5  -3   -0.63    2.95
   5  -5  -3   75.36    5.69
   4  -5  -3   11.51    2.77
   3  -5  -3    6.17    2.20
  -3   5   3    7.11    2.19
   2  -5  -3   17.69    2.46
  -2   5   3   16.51    2.42
  -1   5   3   86.53    5.56
   1  -5  -3   82.13    5.21
   0  -5  -3   36.20    2.66
   0   5   3   33.18    3.12
  -1  -5  -3  195.69    9.70
   1   5   3  186.24   11.19
  -2  -5  -3   43.08    2.62
   2   5   3   44.07    3.85
   3   5   3  126.18    8.24
   4   5   3  213.30   12.93
   5   5   3   24.66    3.72
   6   5   3    9.27    3.60
   7   5   3   10.65    4.30
   8   5   3    2.84    5.69
   6  -6  -3    1.09    3.35
   5  -6  -3    9.83    3.08
   4  -6  -3   11.53    3.14
   3  -6  -3  180.16   10.22
   2  -6  -3    0.84    2.00
  -2   6   3    0.39    2.26
   1  -6  -3  278.24   13.92
  -1   6   3  259.40   14.75
   0   6   3    6.83    2.48
   0  -6  -3   -0.43    1.64
   1   6   3    8.53    2.41
  -1  -6  -3    7.02    1.78
   2   6   3    5.16    2.50
   3   6   3   61.21    5.18
   4   6   3   30.35    3.90
   5   6   3   26.24    4.15
   6   6   3    6.07    3.74
   7   6   3   12.94    4.34
   8   6   3    5.00    4.86
   5  -7  -3    2.03    3.30
   4  -7  -3    1.80    2.83
   3  -7  -3   35.61    4.29
  -2   7   3    3.62    3.02
   2  -7  -3   -2.15    2.38
   1  -7  -3   31.88    3.30
  -1   7   3   37.95    4.18
   0   7   3   17.47    3.45
   0  -7  -3    9.94    2.29
   0   7   3   12.20    3.27
   1   7   3   92.27    7.01
   2   7   3    1.80    2.78
   3   7   3    9.60    3.24
   4   7   3    3.30    3.35
   5   7   3    1.30    3.75
   6   7   3    2.03    4.14
   7   7   3    7.43    4.80
   4  -8  -3    3.00    3.26
   3  -8  -3   26.31    4.07
   2  -8  -3    2.16    2.73
  -1   8   3    3.39    3.82
   1  -8  -3    3.27    2.57
   0   8   3    0.55    3.53
   0   8   3    1.49    4.01
   1   8   3   70.45    6.28
   2   8   3    6.37    3.56
   3   8   3  103.83    8.35
   4   8   3    0.04    3.78
   5   8   3    6.82    4.55
   6   8   3    5.16    4.71
   3  -9  -3    5.68    3.53
   2  -9  -3    5.48    3.30
  -1   9   3   13.50    5.75
   0   9   3   19.16    5.70
   1   9   3    4.60    5.06
   2   9   3   -5.15    3.73
   3   9   3    7.49    4.43
   4   9   3   -2.54    4.34
   5   9   3   13.26    5.31
   0  10   3    6.65    7.43
   1  10   3   35.57    7.78
   2  10   3    6.63    6.51
   3   9  -4   -0.08    7.07
   2   9  -4    3.05    7.22
   1   9  -4    2.40    7.79
   0   9  -4    1.57    6.97
   5   8  -4   25.21    6.95
   4   8  -4    1.98    5.89
   3   8  -4   48.54    8.12
   2   8  -4    7.61    6.31
   1   8  -4  119.18   11.32
   0   8  -4    2.46    5.78
  -1   8  -4   26.88    4.33
  -2   8  -4    4.87    4.21
  -2   8  -4    4.27    4.21
  -3   8  -4   11.99    5.44
   6   7  -4    5.19    5.00
   5   7  -4    8.66    5.07
   4   7  -4    8.57    5.09
   3   7  -4    3.97    4.63
   2   7  -4    5.36    4.96
   1   7  -4   38.96    4.12
   1   7  -4   31.76    6.78
   0   7  -4    5.28    2.80
  -1   7  -4   96.62    6.85
  -2   7  -4   -5.65    2.84
  -3   7  -4   61.59    6.11
  -4   7  -4    3.10    5.57
  -5   7  -4   24.54    9.35
   7   6  -4   23.18    5.54
   6   6  -4    0.85    4.25
   5   6  -4  196.26   13.27
   4   6  -4   60.25    6.45
   3   6  -4  194.33   13.04
   2   6  -4   58.85    6.67
   2   6  -4   64.04    5.02
   1   6  -4  171.06   10.16
   1   6  -4  195.90   13.23
   0   6  -4   18.38    2.91
  -1   6  -4    2.12    2.40
  -2   6  -4   11.45    2.82
  -3   6  -4   86.13    6.78
  -4   6  -4   14.79    4.59
  -5   6  -4   28.04    6.68
  -6   6  -4   10.57    8.92
   8   5  -4    9.09    4.99
   7   5  -4   -2.92    4.11
   6   5  -4   28.45    5.30
   5   5  -4    9.73    3.96
   4   5  -4   11.05    3.51
   3   5  -4  233.38   12.48
   3   5  -4  239.03   14.62
   2   5  -4    0.88    2.10
   2   5  -4    1.59    3.22
   1   5  -4  788.34   38.88
   1   5  -4  802.40   44.54
   0   5  -4   50.40    3.91
  -1   5  -4  936.77   45.63
  -2   5  -4   47.13    4.01
  -3   5  -4  156.89    9.28
  -4   5  -4   57.49    5.25
  -5   5  -4   18.92    4.61
  -6   5  -4   39.43    6.63
  -7   5  -4    1.15    7.08
   8   4  -4    4.84    4.89
   7   4  -4   54.93    6.26
   6   4  -4   62.64    6.52
   5   4  -4  152.34   10.38
   4   4  -4  482.06   27.36
   3   4  -4   45.39    3.45
   3   4  -4   49.54    4.74
   2   4  -4  447.15   22.37
   2   4  -4  440.14   25.24
   1   4  -4   37.74    3.06
   0   4  -4  344.70   17.33
  -1   4  -4  165.66    8.98
  -2   4  -4  129.45    7.44
  -3   4  -4  602.29   29.86
  -4   4  -4    3.21    2.67
  -5   4  -4   48.53    5.10
   6  -4   4    3.44    5.43
  -6   4  -4    8.78    4.09
   7  -4   4   19.95    6.68
  -7   4  -4   23.64    5.67
   8   3  -4   15.61    5.07
   7   3  -4   43.08    5.62
   6   3  -4    7.80    3.78
   5   3  -4  597.19   33.63
   4   3  -4    0.12    2.35
   4   3  -4   -0.45    1.39
   3   3  -4 1567.86   74.88
   3   3  -4 1547.17   84.17
   2   3  -4  347.31   19.46
   2   3  -4  337.11   17.27
   1   3  -4 3337.21  159.63
   0   3  -4  603.88   29.48
  -1   3  -4 1505.97   72.42
  -2   3  -4  505.18   24.89
  -3   3  -4   56.50    4.13
  -4   3  -4  316.82   16.38
   4  -3   4  316.54   19.16
   5  -3   4   19.00    4.48
  -5   3  -4   21.02    3.13
  -6   3  -4  178.50   10.40
   6  -3   4  155.50   12.02
  -7   3  -4   44.91    5.24
   7  -3   4   39.78    6.68
  -8   3  -4   45.54    5.87
   8  -3   4   37.68    7.21
   9   2  -4   11.01    5.48
   8   2  -4   13.92    4.73
   7   2  -4   53.17    6.13
   6   2  -4  213.84   13.97
   6   2  -4  234.53   11.80
   5   2  -4   33.01    2.79
   5   2  -4   38.16    4.39
   4   2  -4  952.29   45.49
   4   2  -4  930.01   51.44
   3   2  -4  354.17   17.40
   3   2  -4  346.82   19.82
   2   2  -4 1080.18   57.98
   2   2  -4 1062.85   51.75
   1   2  -4 1387.73   66.87
   0   2  -4  275.15   13.78
  -1   2  -4 2102.12  100.68
  -2   2  -4  113.24    6.25
   3  -2   4 2572.64  137.50
  -3   2  -4 2535.91  122.33
   4  -2   4    0.97    2.81
  -4   2  -4   -0.05    1.76
   5  -2   4   84.55    5.59
   5  -2   4   91.06    7.49
  -6   2  -4    3.32    2.53
   6  -2   4   -0.65    3.65
  -7   2  -4   41.61    4.62
   7  -2   4   41.20    6.36
   8  -2   4   18.44    5.72
  -8   2  -4   18.46    4.12
   9   1  -4   24.71    6.22
   8   1  -4    0.53    4.68
   7   1  -4  314.88   19.20
   6   1  -4   10.09    3.52
   6   1  -4   10.15    2.10
   5   1  -4 1058.03   58.73
   5   1  -4 1094.26   52.08
   4   1  -4  138.71    9.01
   4   1  -4  142.80    7.65
   3   1  -4 1767.35   86.23
   3   1  -4 1831.32   96.78
   2   1  -4 1489.23   70.55
   2   1  -4 1449.51   78.98
   1   1  -4 1755.82   85.76
   1   1  -4 1815.02   95.81
   0   1  -4 2353.52  112.68
  -1   1  -4  252.16   12.62
   2  -1   4 3767.14  203.68
  -2   1  -4 3840.74  181.70
   3  -1   4  207.31   12.34
  -3   1  -4  208.17   10.66
  -4   1  -4 1024.45   50.23
   4  -1   4 1054.37   56.79
   5  -1   4  731.47   41.28
  -5   1  -4  753.65   36.37
  -6   1  -4  517.26   26.19
   6  -1   4  534.85   30.19
  -7   1  -4  157.59    9.48
   7  -1   4  170.77   11.96
   8  -1   4   31.67    6.23
  -8   1  -4   28.49    3.91
   9  -1   4   38.72    7.20
   9   0  -4   17.63    6.18
   8   0  -4   27.63    5.43
   7   0  -4   22.49    4.54
   7   0  -4   24.21    3.68
   6   0  -4  244.26   14.75
   6   0  -4  232.48   12.59
   5   0  -4  185.90   10.10
   5   0  -4  192.75   11.69
   4   0  -4  417.16   23.44
   4   0  -4  423.68   20.82
   3   0  -4 3664.08  196.26
   3   0  -4 3674.14  175.28
   2   0  -4  725.94   34.62
   2   0  -4  703.87   38.63
   1   0  -4 5210.34  248.73
   0   0  -4  708.08   34.49
   1   0   4 7926.60  405.43
  -1   0  -4 7471.33  362.04
   1   0   4 7377.48  380.99
   2   0   4  174.90    9.67
   2   0   4  186.49   10.45
  -2   0  -4  179.83    9.15
  -3   0  -4 3862.50  183.96
   3   0   4 3928.78  193.45
   3   0   4 3765.11  206.19
   4   0   4  198.06   10.43
   4   0   4  198.87   11.89
  -4   0  -4  195.61   10.22
  -5   0  -4  316.78   16.01
   5   0   4  315.21   18.47
   6   0   4    4.80    3.47
  -6   0  -4   10.39    2.28
  -7   0  -4   13.57    2.63
   7   0   4   13.31    4.27
   8   0   4   61.81    7.27
   9   0   4   -5.37    5.08
   8  -1  -4   16.65    5.59
   8  -1  -4   25.58    3.64
   7  -1  -4  256.16   15.51
   7  -1  -4  224.54   12.87
   6  -1  -4   45.46    4.18
   6  -1  -4   67.55    5.76
   5  -1  -4  474.46   25.27
   5  -1  -4  420.60   22.26
   4  -1  -4  530.17   25.77
   4  -1  -4  515.25   28.86
   3  -1  -4  678.16   32.99
   2  -1  -4 1707.22   93.17
   2  -1  -4 1774.08   83.45
   1  -1  -4    6.66    1.14
   1  -1  -4    4.90    0.82
  -1   1   4    5.13    1.58
   0   1   4 7761.54  402.02
   0  -1  -4 8268.60  382.29
   1   1   4    6.39    1.04
  -1  -1  -4    6.68    1.27
   1   1   4    6.42    1.28
   2   1   4 3681.55  196.20
   2   1   4 3658.68  184.27
   3   1   4 2662.73  151.84
   3   1   4 3399.58  162.14
   4   1   4 1122.58   62.91
   4   1   4 1197.56   58.70
   5   1   4 1249.97   60.99
   5   1   4 1157.14   65.61
   6   1   4  100.75    6.90
  -6  -1  -4   59.01    4.26
   7   1   4  245.22   15.45
   8   1   4    6.41    4.92
   9   1   4   21.14    5.98
   8  -2  -4   26.13    3.95
   7  -2  -4   22.29    5.00
   7  -2  -4   23.03    3.38
   6  -2  -4   60.36    5.99
   6  -2  -4   65.43    5.03
   5  -2  -4 1220.94   59.75
   5  -2  -4 1243.57   67.10
   4  -2  -4  121.87    6.98
   3  -2  -4 2849.43  134.75
   3  -2  -4 2779.91  150.74
   2  -2  -4    2.69    1.19
  -2   2   4    3.23    1.60
   2  -2  -4    1.75    1.15
  -1   2   4 4692.09  243.46
   1  -2  -4 5005.30  231.46
   0   2   4   55.56    3.74
   0  -2  -4   62.88    3.49
   0   2   4   60.60    3.40
   1   2   4 2788.35  139.11
   1   2   4 2746.74  147.83
  -2  -2  -4  352.14   18.10
   2   2   4  388.39   19.13
   3   2   4 2585.30  140.37
   3   2   4 2713.97  131.83
  -3  -2  -4 2562.86  125.20
  -4  -2  -4  854.83   41.96
   4   2   4  889.55   44.31
   4   2   4  871.75   47.50
   5   2   4   17.67    2.36
   5   2   4   16.46    3.09
  -5  -2  -4   22.12    2.05
   6   2   4  332.88   18.94
   6   2   4  310.21   16.96
   7   2   4   -0.06    3.80
   8   2   4  108.11    9.40
   9   2   4    7.24    5.25
   8  -3  -4    5.38    3.22
   7  -3  -4   56.16    4.98
   6  -3  -4  101.39    8.30
   6  -3  -4   95.34    6.68
   5  -3  -4  137.31    9.84
   5  -3  -4  154.68    8.87
   4  -3  -4  185.84    9.81
   4  -3  -4  169.18   11.06
   3  -3  -4   30.69    3.21
   3  -3  -4   23.25    2.57
  -3   3   4   27.82    2.86
   2  -3  -4 1755.74   83.26
  -2   3   4 1710.98   87.51
  -1   3   4  416.39   21.78
   1  -3  -4  426.26   20.72
   0   3   4 2206.28  115.72
   0  -3  -4 2169.69  103.52
   0   3   4 2117.32  109.01
  -1  -3  -4 1767.01   84.38
   1   3   4 1710.16   89.00
   1   3   4 1816.39   94.51
   2   3   4  985.82   50.37
   2   3   4  989.31   53.49
  -2  -3  -4 1001.35   47.51
   3   3   4 2748.60  146.96
  -3  -3  -4 2737.30  130.92
   4   3   4   63.82    5.08
  -4  -3  -4   60.95    3.60
   5   3   4  747.86   41.16
   6   3   4    2.13    3.11
   6   3   4   -1.92    1.98
   8   3   4    3.25    4.32
   9   3   4   26.70    6.31
   8  -4  -4    1.07    3.43
   7  -4  -4   88.87    6.98
   6  -4  -4    8.21    2.89
   5  -4  -4  573.22   28.72
   4  -4  -4    2.97    2.89
   4  -4  -4   -0.16    2.15
   3  -4  -4  989.62   46.86
  -3   4   4  933.89   48.95
  -2   4   4   12.11    2.10
   2  -4  -4   17.91    2.13
   1  -4  -4  767.10   37.30
  -1   4   4  769.22   39.29
   0   4   4  489.72   25.25
   0  -4  -4  477.74   23.79
   0   4   4  495.44   26.53
   1   4   4  298.01   16.44
   1   4   4  293.00   15.77
  -1  -4  -4  298.33   14.59
   2   4   4 1861.53   99.98
  -2  -4  -4 1863.41   88.95
   3   4   4   87.70    5.93
   4   4   4 1546.36   83.51
   5   4   4  129.33    8.82
   6   4   4  335.25   19.70
   7   4   4   32.33    3.70
   7   4   4   23.79    4.79
   8   4   4   43.24    6.21
   9   4   4    1.16    5.78
   7  -5  -4    9.51    3.61
   6  -5  -4   12.28    3.34
   5  -5  -4   15.56    3.13
   4  -5  -4   45.14    4.03
   3  -5  -4  282.12   14.92
  -3   5   4  288.70   15.43
  -2   5   4  319.38   17.02
   2  -5  -4  314.13   16.20
  -1   5   4  827.73   42.37
   1  -5  -4  826.94   40.26
   0   5   4  521.33   26.80
   0   5   4  503.62   28.17
   0  -5  -4  519.28   25.22
   1   5   4 1242.00   62.10
  -1  -5  -4 1217.07   58.61
   1   5   4 1203.81   65.80
  -2  -5  -4  250.80   12.33
   2   5   4  250.84   14.39
   3   5   4  738.02   40.43
   4   5   4   -2.54    2.52
   5   5   4  138.22    9.20
   6   5   4   16.08    3.75
   7   5   4   16.79    4.68
   8   5   4   18.07    5.32
   6  -6  -4    1.17    3.41
   5  -6  -4  152.45    9.38
   4  -6  -4   51.93    4.61
   3  -6  -4  138.02    8.37
   2  -6  -4   77.34    5.29
  -1   6   4   10.33    2.70
   1  -6  -4    8.22    2.21
   0   6   4  374.88   20.32
   0  -6  -4  371.06   18.92
   0   6   4  391.44   21.34
  -1  -6  -4   10.80    1.79
   1   6   4   11.90    2.41
   1   6   4   10.73    2.64
   2   6   4  515.01   28.58
   3   6   4  146.50    9.47
   4   6   4  388.27   22.26
   5   6   4  173.26   11.22
   6   6   4   44.15    5.44
   7   6   4   25.75    5.20
   8   6   4    1.36    4.52
   8   6   4    1.59    4.50
   5  -7  -4   31.20    4.39
   4  -7  -4    3.50    3.14
   3  -7  -4  123.01    8.00
  -2   7   4   60.38    5.20
   2  -7  -4   52.13    4.64
   1  -7  -4  211.27   11.67
  -1   7   4  222.43   12.71
  -1   7   4  217.17   13.17
   0  -7  -4   74.11    4.97
   0   7   4   81.30    6.38
   0   7   4   72.77    5.96
   1   7   4  201.76   12.80
   1   7   4  224.24   12.63
   2   7   4   -1.18    2.53
   3   7   4   43.86    4.59
   4   7   4   50.35    5.29
   5   7   4    0.09    3.36
   6   7   4   53.82    6.14
   7   7   4    3.13    4.59
   4  -8  -4   17.43    3.77
   3  -8  -4    5.97    3.27
   2  -8  -4   24.48    3.57
  -1   8   4   55.19    5.68
   1  -8  -4   58.71    5.08
   0   8   4   53.53    5.84
   1   8   4   63.99    6.62
   1   8   4   74.48    6.26
   2   8   4   63.72    5.76
   3   8   4  100.69    7.95
   4   8   4   36.92    5.16
   5   8   4   48.39    6.03
   6   8   4    0.41    4.40
   3  -9  -4   19.70    4.05
   2  -9  -4   -0.97    3.08
  -1   9   4   26.79    5.53
   0   9   4   13.84    5.48
   1   9   4    8.57    4.99
   2   9   4   56.45    6.96
   3   9   4    4.39    4.01
   4   9   4   30.98    5.36
   5   9   4   15.24    5.21
   0  10   4   21.81    7.40
   1  10   4   15.80    7.07
   2  10   4   17.10    6.84
   3  10   4   26.32    6.63
   1   9  -5   -5.46    7.71
   0   9  -5   -5.83    6.75
   4   8  -5   12.66    6.81
   3   8  -5   30.00    7.36
   2   8  -5   21.50    7.55
   1   8  -5    7.70    6.92
   0   8  -5    3.60    6.72
  -1   8  -5   13.25    4.12
  -2   8  -5    3.75    3.95
   6   7  -5   -1.55    5.25
   5   7  -5    4.44    5.25
   4   7  -5    4.14    5.07
   3   7  -5    4.64    5.18
   2   7  -5   11.18    5.99
   1   7  -5   11.32    3.47
   1   7  -5   12.80    6.09
   0   7  -5   16.18    3.45
  -1   7  -5    0.83    2.98
  -2   7  -5    9.62    3.67
  -3   7  -5   -0.34    4.00
  -4   7  -5   -2.05    4.97
   7   6  -5   25.21    6.11
   6   6  -5    0.30    4.67
   5   6  -5   31.92    5.71
   4   6  -5   64.07    7.02
   3   6  -5   45.59    6.19
   2   6  -5   79.59    6.23
   2   6  -5   83.07    8.12
   1   6  -5    4.73    4.56
   1   6  -5    3.85    2.56
   0   6  -5    3.49    2.58
  -1   6  -5   11.67    2.91
  -2   6  -5    3.51    2.69
  -3   6  -5   -0.58    2.97
  -4   6  -5   57.46    5.82
  -5   6  -5   24.76    5.94
  -6   6  -5    1.29    6.64
   7   5  -5   10.90    4.90
   6   5  -5   -2.32    4.15
   5   5  -5    5.69    4.02
   4   5  -5    9.59    3.71
   3   5  -5   37.98    5.09
   3   5  -5   48.94    3.94
   2   5  -5   15.36    3.06
   2   5  -5   13.64    3.97
   1   5  -5   42.33    3.80
   0   5  -5    7.86    2.38
  -1   5  -5    7.55    2.42
  -2   5  -5    1.46    2.21
  -3   5  -5   27.03    3.59
  -4   5  -5    0.09    3.01
  -5   5  -5   43.57    5.38
  -6   5  -5    0.62    4.54
  -7   5  -5    5.61    6.64
   8   4  -5   -4.69    4.68
   7   4  -5    0.79    4.01
   6   4  -5    7.71    4.04
   5   4  -5   14.80    3.79
   4   4  -5  100.43    7.55
   4   4  -5  101.48    6.06
   3   4  -5    2.19    1.88
   3   4  -5    1.80    2.65
   2   4  -5   39.10    4.69
   2   4  -5   44.36    3.88
   1   4  -5   45.92    3.69
   0   4  -5   12.20    2.22
  -1   4  -5  310.72   15.84
  -2   4  -5    1.13    2.00
  -3   4  -5   67.99    5.14
  -4   4  -5   27.11    3.41
  -5   4  -5   43.34    4.51
  -6   4  -5   11.59    4.11
  -7   4  -5    4.26    4.45
   7  -4   5    5.27    6.29
   8   3  -5    2.06    4.69
   7   3  -5   -1.30    3.99
   6   3  -5    3.70    3.77
   5   3  -5   79.95    6.65
   4   3  -5    1.73    2.55
   4   3  -5   -0.70    1.48
   3   3  -5  157.39    9.78
   3   3  -5  146.54    8.32
   2   3  -5    0.00    2.12
   2   3  -5    1.10    1.67
   1   3  -5   11.45    2.05
   0   3  -5    0.83    1.42
  -1   3  -5  149.78    8.19
  -2   3  -5   26.04    2.60
  -3   3  -5  173.14    9.43
   4  -3   5    2.04    3.75
  -4   3  -5   -1.32    1.99
  -5   3  -5  124.93    7.81
   5  -3   5  120.36   10.01
  -6   3  -5   -0.01    2.84
   6  -3   5   -1.76    4.53
   7  -3   5   39.81    6.86
  -7   3  -5   35.41    4.92
  -8   3  -5    1.15    3.99
   8  -3   5   -4.71    5.82
   8   2  -5   -1.77    4.94
   8   2  -5   -2.03    4.94
   7   2  -5    6.79    4.14
   6   2  -5   15.76    3.96
   6   2  -5   10.42    2.22
   5   2  -5   23.42    2.52
   5   2  -5   22.38    3.88
   4   2  -5    3.16    1.55
   4   2  -5    3.65    2.40
   3   2  -5  193.20   11.85
   3   2  -5  202.12   10.33
   2   2  -5    7.69    1.73
   2   2  -5    9.73    2.13
   1   2  -5  442.18   22.15
   0   2  -5    3.61    1.35
  -1   2  -5  679.32   33.08
  -2   2  -5  864.15   41.93
   3  -2   5   -1.46    2.50
  -3   2  -5   -0.65    1.66
   4  -2   5   81.52    6.88
  -4   2  -5   86.97    5.57
  -5   2  -5   20.63    2.95
   5  -2   5   20.43    4.31
   6  -2   5  130.22   10.14
  -6   2  -5  136.33    8.30
  -7   2  -5   29.63    3.95
   7  -2   5   36.54    6.05
   8  -2   5   17.44    6.28
  -8   2  -5   17.07    3.94
   8   1  -5   -0.66    4.67
   6   1  -5    1.25    3.21
   6   1  -5    1.97    2.02
   5   1  -5   93.33    5.65
   5   1  -5   88.85    7.01
   4   1  -5    2.38    1.52
   4   1  -5    1.83    2.21
   4   1  -5    2.54    1.52
   3   1  -5    5.35    1.85
   3   1  -5    4.46    1.47
   2   1  -5   53.37    3.63
   2   1  -5   47.87    3.68
   1   1  -5  214.04   11.15
   0   1  -5  189.76    9.96
  -1   1  -5 1192.61   57.43
  -2   1  -5   58.20    3.89
   2  -1   5   57.52    4.66
  -3   1  -5  611.04   29.81
   3  -1   5  608.97   33.78
   4  -1   5   -4.25    2.48
  -4   1  -5    0.47    1.61
  -5   1  -5  480.51   24.38
   5  -1   5  501.36   28.09
   6  -1   5    4.02    4.00
  -6   1  -5    3.11    2.22
  -7   1  -5   35.02    3.89
   7  -1   5   42.16    5.85
  -8   1  -5   18.51    3.52
   8  -1   5   31.07    6.00
   9  -1   5    5.92    6.00
   8   0  -5   10.41    5.01
   7   0  -5   54.48    4.59
   6   0  -5   20.40    3.87
   6   0  -5   20.79    2.82
   5   0  -5  176.37   10.46
   5   0  -5  150.72    8.90
   4   0  -5   23.23    2.40
   4   0  -5   19.26    2.76
   3   0  -5 1085.06   54.19
   3   0  -5 1161.73   60.71
   2   0  -5   77.05    4.57
   0   0  -5 1904.57   91.52
   1   0   5   79.06    4.95
   1   0   5   74.50    4.94
  -1   0  -5   81.11    4.58
  -2   0  -5 1977.84   93.98
   2   0   5 1944.48  105.28
   3   0   5  777.78   39.11
   3   0   5  755.59   41.86
   4   0   5  429.15   21.44
   4   0   5  387.68   23.33
  -4   0  -5  421.76   20.55
  -5   0  -5  150.77    8.17
   5   0   5  140.52    9.71
  -6   0  -5  114.62    6.94
   6   0   5  111.45    8.76
  -7   0  -5  145.12    8.52
   7   0   5  148.86   10.72
   8   0   5   45.27    6.50
   9   0   5   17.17    6.15
   8  -1  -5    0.54    4.93
   8  -1  -5    3.39    2.87
   7  -1  -5   17.85    4.80
   7  -1  -5   13.49    3.50
   6  -1  -5    4.69    2.43
   6  -1  -5    6.27    3.46
   5  -1  -5    2.77    2.02
   5  -1  -5    3.13    2.55
   4  -1  -5  112.61    7.58
   4  -1  -5  122.59    6.89
   3  -1  -5  286.08   14.23
   3  -1  -5  275.23   15.69
   2  -1  -5  617.06   34.16
   2  -1  -5  650.93   30.88
   1  -1  -5 3734.08  177.85
   1  -1  -5 3893.54  198.89
  -1   1   5 3535.98  187.37
   0  -1  -5 3585.06  169.25
   0   1   5 3496.40  178.04
  -1  -1  -5 2002.38   99.81
   1   1   5 2126.77  104.85
   1   1   5 2111.18  111.35
   2   1   5    1.57    1.32
   2   1   5    4.11    1.36
  -2  -1  -5    2.58    1.16
  -3  -1  -5 1574.10   77.84
   3   1   5 1673.98   87.40
  -4  -1  -5    6.25    1.31
   4   1   5   10.71    2.65
   4   1   5   10.36    1.82
   5   1   5  246.99   12.71
   5   1   5  222.09   14.33
   6   1   5  116.22    8.54
   7   1   5   10.14    4.33
   8   1   5   69.80    7.32
   9   1   5   -0.22    4.95
   8  -2  -5    2.08    3.04
   7  -2  -5   60.85    5.24
   7  -2  -5   61.70    6.90
   6  -2  -5  119.99    8.11
   6  -2  -5   84.47    6.44
   5  -2  -5  343.86   16.29
   5  -2  -5  280.77   18.08
   4  -2  -5    9.09    2.20
   4  -2  -5   12.78    2.66
   3  -2  -5  405.33   22.38
   3  -2  -5  404.87   20.21
   2  -2  -5  390.60   19.39
  -2   2   5  395.37   20.66
   2  -2  -5  385.71   21.24
  -1   2   5  105.80    6.42
   1  -2  -5  109.40    5.91
   0  -2  -5  957.25   46.24
   0   2   5  962.67   48.74
   1   2   5  868.55   45.91
   1   2   5  856.87   43.45
  -1  -2  -5  838.18   41.25
  -2  -2  -5 1835.33   88.06
  -3  -2  -5 1068.01   52.43
   3   2   5 1107.76   55.16
  -4  -2  -5  144.97    7.61
   4   2   5  146.88    8.12
   4   2   5  139.68    8.98
  -5  -2  -5  622.68   30.72
   5   2   5  652.93   32.45
   5   2   5  617.39   34.96
   6   2   5  101.93    7.71
   7   2   5  233.70   14.89
   8   2   5   19.57    5.13
   9   2   5   35.34    6.71
   8  -3  -5    0.41    3.36
   7  -3  -5   -0.22    2.88
   6  -3  -5   26.04    3.74
   5  -3  -5   14.77    2.94
   5  -3  -5   19.72    3.72
   4  -3  -5   65.83    5.56
   4  -3  -5   69.02    4.88
  -3   3   5 1210.22   60.78
   3  -3  -5 1099.20   57.60
   3  -3  -5 1263.89   64.45
  -2   3   5  565.60   29.70
   2  -3  -5  583.96   28.21
  -1   3   5 2598.23  133.16
   1  -3  -5 2690.73  126.56
   0   3   5   20.57    1.59
   0  -3  -5   17.78    1.69
   1   3   5 1625.15   83.72
   1   3   5 1689.05   88.74
   2   3   5  316.98   16.95
  -2  -3  -5  330.78   15.78
   2   3   5  319.17   17.80
  -3  -3  -5  501.41   24.50
   3   3   5  505.58   27.79
   3   3   5  509.94   26.18
  -4  -3  -5  412.08   20.62
   4   3   5  427.48   21.93
   5   3   5   62.61    5.58
   5   3   5   73.71    4.99
   6   3   5  215.32   13.14
   6   3   5  275.10   14.87
   7   3   5    7.99    4.58
   8   3   5   73.52    7.67
   9   3   5   13.72    5.66
   7  -4  -5   22.89    3.94
   6  -4  -5    5.54    2.84
   5  -4  -5   17.83    3.35
   4  -4  -5   24.91    3.74
   4  -4  -5   22.79    3.11
   3  -4  -5   28.34    2.98
  -3   4   5   19.91    2.87
   2  -4  -5  204.71   11.02
  -2   4   5  214.63   11.59
   1  -4  -5  255.54   13.08
  -1   4   5  255.91   13.80
   0   4   5 1988.86  100.82
   0  -4  -5 1990.05   95.65
   0   4   5 2010.52  106.82
   1   4   5 1735.36   91.58
   1   4   5 1653.36   86.37
  -1  -4  -5 1734.43   81.83
  -2  -4  -5 1899.86   91.11
   2   4   5 1872.85   96.32
   2   4   5 1946.27  102.32
   3   4   5 1018.38   52.64
   3   4   5 1010.79   55.88
  -3  -4  -5 1064.19   49.39
   4   4   5  131.58    7.99
   4   4   5  108.82    7.35
   5   4   5  534.90   30.03
   5   4   5  536.85   27.97
   6   4   5   25.50    3.47
   6   4   5   24.26    4.16
   7   4   5  123.96    7.71
   7   4   5   94.49    8.48
   8   4   5    4.31    4.29
   9   4   5   26.49    6.05
   7  -5  -5    3.24    3.36
   6  -5  -5   -0.24    3.14
   5  -5  -5  106.36    7.30
   4  -5  -5    2.39    2.44
  -3   5   5  594.38   30.80
   3  -5  -5  588.68   29.48
   2  -5  -5   -1.64    1.83
  -2   5   5    1.85    2.28
   1  -5  -5  708.98   35.00
  -1   5   5  722.78   36.94
   0   5   5  143.60    8.42
   0  -5  -5  142.86    7.63
   0   5   5  136.26    8.26
   1   5   5  237.00   13.14
  -1  -5  -5  245.09   12.03
   1   5   5  232.53   13.47
   2   5   5  195.59   11.43
   2   5   5  208.41   11.82
   3   5   5   19.03    2.98
   3   5   5   19.58    2.92
   4   5   5  531.66   28.72
   4   5   5  569.66   30.67
   5   5   5   12.00    2.95
   5   5   5   10.89    3.31
   6   5   5  159.57   11.13
   6   5   5  179.25   10.36
   7   5   5   13.02    3.58
   7   5   5   24.67    4.94
   8   5   5   56.63    7.03
   6  -6  -5    4.45    3.40
   5  -6  -5    0.99    3.14
   4  -6  -5   43.23    4.44
   3  -6  -5   14.08    2.93
   2  -6  -5  217.64   11.19
  -2   6   5  190.83   11.63
  -1   6   5  523.84   29.13
   1  -6  -5  517.52   26.23
  -1   6   5  550.76   27.88
   0   6   5  955.37   51.34
   0  -6  -5  931.32   45.90
   0   6   5  955.21   48.68
  -1  -6  -5  879.16   42.49
   1   6   5  851.24   47.67
   1   6   5  907.48   45.31
   2   6   5  188.95   11.33
   2   6   5  192.29   11.42
   3   6   5  481.38   26.79
   3   6   5  474.71   25.40
   4   6   5   14.51    3.32
   5   6   5   82.95    6.89
   6   6   5   21.52    4.20
   6   6   5   26.05    3.94
   7   6   5   37.30    4.72
   7   6   5   24.47    4.98
   8   6   5   15.53    5.02
   5  -7  -5   38.65    4.74
   4  -7  -5    3.37    3.22
   3  -7  -5   40.45    4.19
   2  -7  -5    0.60    2.54
   1  -7  -5   66.72    4.95
  -1   7   5   57.23    5.27
   0  -7  -5   21.13    2.67
   0   7   5   22.15    3.93
   1   7   5   28.69    3.46
   1   7   5   28.31    4.17
   2   7   5  199.67   12.36
   2   7   5  211.21   12.35
   3   7   5    6.27    3.11
   3   7   5   10.74    3.39
   4   7   5  250.29   15.27
   5   7   5   23.81    4.26
   6   7   5  108.56    8.09
   6   7   5  109.51    8.90
   7   7   5   17.23    4.36
   7   7   5   14.40    4.89
   4  -8  -5   10.40    3.66
   3  -8  -5   49.99    4.80
   2  -8  -5   42.24    4.33
   1  -8  -5  154.18    9.19
  -1   8   5  163.97   10.75
   0   8   5   31.47    5.03
   1   8   5  305.52   17.74
   2   8   5   -0.11    3.09
   2   8   5   -2.02    3.82
   3   8   5   59.06    5.66
   3   8   5   61.07    6.29
   4   8   5   19.23    4.35
   4   8   5   15.13    4.18
   5   8   5   18.81    4.31
   5   8   5   22.42    4.61
   6   8   5   20.34    4.52
   6   8   5   34.65    5.42
   3  -9  -5   -7.08    4.14
   2  -9  -5   -5.08    3.30
  -1   9   5   -0.93    4.71
   0   9   5   48.19    6.45
   1   9   5   24.60    5.77
   2   9   5   66.49    7.44
   3   9   5   10.42    5.08
   4   9   5   76.73    7.20
   4   9   5   64.62    7.42
   5   9   5   10.65    4.65
   5   9   5   16.54    4.97
   0  10   5   -2.85    5.93
   1  10   5   26.59    7.26
   2  10   5   21.87    6.87
   3  10   5    3.04    5.91
   4   8  -6   -1.11    6.20
   3   8  -6   56.16    9.19
   2   8  -6    6.11    7.28
   1   8  -6   11.50    7.38
   0   8  -6    0.99    6.60
  -1   8  -6   33.00    4.98
  -2   8  -6   18.92    4.76
   5   7  -6    5.17    5.34
   4   7  -6   72.04    8.63
   3   7  -6   20.05    6.51
   2   7  -6  227.62   16.80
   1   7  -6   41.68    7.47
   0   7  -6  183.53   11.00
  -1   7  -6   34.12    4.51
  -2   7  -6   41.80    5.02
  -3   7  -6    8.32    4.30
  -4   7  -6   -0.85    4.99
   6   6  -6    2.87    5.01
   5   6  -6  112.04    9.75
   4   6  -6   -0.04    4.56
   3   6  -6  106.53    9.36
   2   6  -6    5.98    4.85
   2   6  -6    7.24    3.57
   1   6  -6   25.58    5.97
   1   6  -6   32.50    3.98
   0   6  -6   64.33    5.25
  -1   6  -6  142.50    8.76
  -2   6  -6  130.37    8.33
  -3   6  -6   12.41    3.62
  -3   6  -6   12.24    3.62
  -4   6  -6   22.11    4.45
  -5   6  -6   17.53    5.58
   7   5  -6    3.78    5.06
   6   5  -6   82.19    7.80
   5   5  -6   48.50    5.80
   4   5  -6  257.26   16.35
   3   5  -6  110.62    7.04
   3   5  -6   96.83    8.41
   2   5  -6  320.95   17.25
   2   5  -6  317.73   19.89
   1   5  -6  165.20    9.66
   0   5  -6  216.47   11.87
  -1   5  -6   37.95    3.81
  -2   5  -6    0.71    2.48
  -3   5  -6   37.01    3.93
  -4   5  -6    3.69    3.18
  -5   5  -6    7.26    3.73
  -6   5  -6    4.86    4.43
   8   4  -6   31.38    6.00
   7   4  -6   65.08    7.05
   6   4  -6    5.16    4.01
   5   4  -6  133.99    9.67
   4   4  -6    7.54    3.24
   4   4  -6    7.50    2.08
   3   4  -6   26.27    3.06
   3   4  -6   24.86    3.93
   2   4  -6  293.90   17.77
   2   4  -6  289.43   15.53
   1   4  -6   44.53    3.89
   0   4  -6  539.94   26.88
  -1   4  -6   61.43    4.76
  -2   4  -6 1004.50   48.98
  -3   4  -6    2.55    2.34
  -4   4  -6  120.08    7.52
  -5   4  -6    8.52    3.12
  -6   4  -6   27.20    4.41
  -7   4  -6    1.54    4.08
   8   3  -6   33.45    5.88
   7   3  -6   51.06    6.37
   6   3  -6  110.92    8.73
   5   3  -6   64.53    4.70
   5   3  -6   67.82    6.20
   4   3  -6   87.70    5.59
   4   3  -6   86.12    6.93
   3   3  -6  232.37   13.46
   3   3  -6  212.14   11.71
   2   3  -6  230.75   14.84
   2   3  -6  265.19   13.26
   1   3  -6   99.96    6.42
   0   3  -6   11.77    2.11
  -1   3  -6  191.67   10.32
  -2   3  -6   54.25    4.13
  -4   3  -6   53.66    4.26
  -5   3  -6   49.72    4.43
   5  -3   6   54.79    6.58
  -6   3  -6    9.79    3.38
   6  -3   6   16.09    5.69
   7  -3   6   24.86    6.62
  -7   3  -6   22.38    4.07
   8  -3   6    3.58    5.97
  -8   3  -6   -0.12    3.97
   8   2  -6   -0.08    4.68
   7   2  -6   66.59    6.96
   6   2  -6   89.39    5.83
   6   2  -6   85.25    7.61
   5   2  -6    8.13    2.03
   5   2  -6    9.86    3.50
   4   2  -6  362.76   21.31
   4   2  -6  381.66   18.76
   3   2  -6    9.96    2.53
   3   2  -6   11.11    1.96
   2   2  -6  756.80   40.27
   2   2  -6  711.24   35.98
   1   2  -6    3.53    1.95
   0   2  -6 1498.83   72.28
  -1   2  -6   60.61    4.08
  -2   2  -6 1169.14   56.56
  -3   2  -6    0.91    1.82
   3  -2   6   -2.85    2.44
  -4   2  -6  120.81    7.21
   4  -2   6  117.65    8.72
   5  -2   6    6.96    3.85
  -5   2  -6   11.80    2.68
   6  -2   6   22.42    5.03
  -6   2  -6   18.80    3.34
   7  -2   6    2.56    5.32
  -7   2  -6    2.16    3.03
  -8   2  -6    0.04    3.34
   8  -2   6   -1.27    5.61
   8   1  -6   45.01    6.73
   7   1  -6   37.68    5.53
   6   1  -6   58.54    4.62
   6   1  -6   60.90    5.92
   5   1  -6   60.70    4.73
   5   1  -6   75.05    6.08
   4   1  -6  101.37    6.16
   4   1  -6  103.63    7.37
   3   1  -6  136.57    8.87
   3   1  -6  149.84    7.98
   2   1  -6   91.64    5.48
   2   1  -6   88.98    5.94
   1   1  -6  205.23   10.96
   0   1  -6   45.39    3.56
  -1   1  -6  174.33    9.27
  -2   1  -6  393.10   19.14
   2  -1   6  371.80   21.60
  -3   1  -6   30.08    2.84
   3  -1   6   29.59    3.70
  -4   1  -6   70.33    4.86
   4  -1   6   76.79    6.13
   5  -1   6   10.10    3.75
  -5   1  -6    7.96    2.34
  -6   1  -6   14.32    2.84
   6  -1   6   17.49    4.57
   7  -1   6   23.78    5.25
  -7   1  -6   22.07    3.45
  -8   1  -6    1.35    2.91
   8  -1   6    1.52    5.31
   8   0  -6   26.15    5.81
   7   0  -6    4.58    4.07
   7   0  -6    1.17    2.55
   6   0  -6  282.82   16.73
   6   0  -6  258.88   14.17
   5   0  -6    8.41    2.92
   5   0  -6   12.85    2.33
   4   0  -6  269.63   14.46
   4   0  -6  294.14   16.31
   3   0  -6    4.68    1.71
   3   0  -6    3.85    1.85
   2   0  -6  255.16   13.12
   1   0  -6  134.62    7.75
   0   0  -6  394.31   19.82
   1   0   6  146.44    8.24
  -1   0  -6  136.10    7.71
  -2   0  -6  221.46   11.31
   2   0   6  223.25   12.70
   2   0   6  212.76   12.06
   3   0   6   65.74    5.23
   3   0   6   62.49    4.61
  -3   0  -6   68.76    4.42
   4   0   6    1.78    2.58
   4   0   6    3.07    1.84
  -4   0  -6    3.43    1.94
  -5   0  -6   15.71    2.50
   5   0   6   23.69    3.64
   6   0   6   17.06    4.18
  -6   0  -6   12.89    2.57
  -7   0  -6    1.71    2.45
   7   0   6    2.32    4.27
   8   0   6    4.37    5.01
   9   0   6   11.87    5.90
   8  -1  -6   24.84    3.99
   7  -1  -6    6.65    4.43
   7  -1  -6    3.33    2.82
   6  -1  -6   12.52    2.90
   6  -1  -6   19.39    4.51
   5  -1  -6    4.23    2.04
   5  -1  -6    9.81    2.86
   4  -1  -6    3.57    1.68
   4  -1  -6    3.65    1.67
   4  -1  -6   19.58    2.28
   3  -1  -6   12.76    1.98
   3  -1  -6   15.50    2.04
   2  -1  -6  324.84   16.85
   2  -1  -6  345.04   18.44
   1  -1  -6   49.56    3.20
  -1   1   6   56.90    4.56
   1  -1  -6   50.13    3.54
   0  -1  -6 1934.48   95.59
   0   1   6 2047.19  100.69
   1   1   6   55.48    3.60
  -1  -1  -6   50.20    3.89
   1   1   6   47.45    3.87
   2   1   6  155.58    9.38
   2   1   6  158.81    8.90
  -2  -1  -6  168.94    8.70
  -3  -1  -6    9.12    1.73
   3   1   6    9.87    1.94
   3   1   6    9.68    2.22
   4   1   6    1.68    1.72
  -4  -1  -6   -0.27    1.60
   4   1   6    1.02    2.29
   5   1   6   53.66    5.30
   5   1   6   60.78    4.41
  -5  -1  -6   61.20    4.22
  -6  -1  -6   -0.87    2.17
   6   1   6    1.84    3.41
   7   1   6   32.03    5.33
   8   1   6    4.46    4.96
   9   1   6    2.74    5.48
   8  -2  -6    6.19    3.30
   7  -2  -6   19.61    3.94
   6  -2  -6   61.42    5.04
   6  -2  -6   73.47    6.38
   5  -2  -6   33.13    4.02
   5  -2  -6   28.46    3.33
   4  -2  -6   61.22    4.74
   4  -2  -6   61.06    5.03
   3  -2  -6   38.87    3.41
   3  -2  -6   39.21    3.20
   2  -2  -6   29.71    2.41
  -2   2   6   30.13    3.41
   2  -2  -6   30.53    2.62
  -1   2   6  473.42   24.99
   1  -2  -6  485.48   23.61
   0  -2  -6  407.77   19.87
   0   2   6  395.36   21.01
   1   2   6  139.92    7.85
   1   2   6  134.99    7.74
  -1  -2  -6  134.27    7.37
   2   2   6   66.52    4.50
   2   2   6   63.02    4.35
   3   2   6   48.60    4.14
  -3  -2  -6   50.68    3.69
   3   2   6   52.65    3.85
  -4  -2  -6    0.65    1.47
   4   2   6   14.75    2.18
   4   2   6   14.76    2.18
   4   2   6    0.32    2.25
   5   2   6    8.68    2.18
   5   2   6    1.44    2.93
   5   2   6    8.53    2.18
  -5  -2  -6    0.49    1.68
   6   2   6   13.70    3.71
   7   2   6   -0.60    3.97
   8   2   6   19.30    5.52
   9   2   6    7.32    5.71
   8  -3  -6    5.09    3.60
   7  -3  -6   -0.82    2.97
   6  -3  -6   23.03    3.78
   5  -3  -6    2.28    2.35
   4  -3  -6  196.78   10.72
   4  -3  -6  195.03   11.90
   3  -3  -6   75.31    5.32
   3  -3  -6   77.80    5.27
  -3   3   6   76.37    5.92
   2  -3  -6  516.56   25.32
  -2   3   6  508.37   26.76
  -1   3   6   -0.06    1.83
   1  -3  -6   -0.09    1.21
   0   3   6  424.56   21.90
   0  -3  -6  413.85   20.64
  -1  -3  -6   24.47    2.03
   1   3   6   23.51    1.97
   2   3   6   68.30    4.58
  -2  -3  -6   69.35    4.04
   2   3   6   65.20    4.87
   3   3   6  149.22    9.11
  -3  -3  -6  158.60    8.05
   3   3   6  146.35    8.69
   4   3   6  162.28   10.19
   4   3   6  172.04    9.56
  -4  -3  -6  168.42    8.99
   5   3   6   54.17    4.22
   6   3   6   37.69    4.48
   6   3   6   23.25    2.95
   7   3   6    9.09    4.28
   8   3   6   -2.53    4.32
   9   3   6    4.93    5.35
   7  -4  -6    1.92    3.18
   6  -4  -6    8.06    3.40
   5  -4  -6   -0.43    2.66
   4  -4  -6    2.78    2.47
  -4   4   6    1.87    2.50
   3  -4  -6   26.99    3.00
  -3   4   6   27.99    3.39
  -2   4   6   -0.67    1.98
   2  -4  -6    0.66    1.66
  -1   4   6  340.00   17.61
  -1   4   6  339.24   17.89
   1  -4  -6  308.16   16.57
   0   4   6    3.26    1.02
   0  -4  -6    2.96    1.40
   1   4   6  147.31    8.84
   1   4   6  154.08    8.67
   2   4   6  169.14    9.92
   2   4   6  168.76    9.82
  -2  -4  -6  174.72    8.74
  -3  -4  -6   40.22    2.64
   3   4   6   46.72    3.70
   3   4   6   33.89    3.50
   4   4   6   13.72    2.83
   4   4   6   20.75    2.96
   5   4   6   19.69    3.20
   5   4   6   18.10    3.50
   6   4   6   43.06    4.85
   6   4   6   42.04    4.27
   7   4   6    2.45    3.75
   8   4   6   33.19    5.62
   9   4   6    6.97    5.43
   7  -5  -6   -0.26    3.61
   6  -5  -6   10.58    3.49
   5  -5  -6   14.80    3.45
   4  -5  -6   48.48    4.89
  -3   5   6  102.09    6.79
   3  -5  -6   89.92    6.28
   2  -5  -6    1.70    2.08
  -2   5   6   -0.83    2.30
  -1   5   6   -0.13    2.25
  -1   5   6    3.53    1.32
   1  -5  -6   -0.01    1.78
   0   5   6   38.86    3.60
   0  -5  -6   36.76    2.94
   0   5   6   34.75    2.91
   1   5   6    5.76    2.43
  -1  -5  -6    7.30    1.59
   1   5   6    7.09    1.74
   2   5   6  245.95   13.91
   2   5   6  242.08   13.56
  -2  -5  -6  243.50   12.19
   3   5   6  117.08    7.39
   3   5   6  108.59    7.20
   4   5   6  292.16   17.12
   4   5   6  299.30   16.32
   5   5   6    3.32    2.81
   5   5   6    0.71    2.76
   6   5   6   11.29    3.31
   6   5   6   10.71    3.80
   7   5   6   16.28    3.86
   7   5   6   20.46    4.79
   8   5   6    1.00    4.38
   6  -6  -6    1.62    3.33
   5  -6  -6   12.46    3.56
   4  -6  -6   44.36    4.36
   3  -6  -6   15.67    3.04
  -3   6   6   20.03    3.63
   2  -6  -6   75.92    5.42
  -2   6   6   72.98    5.84
  -1   6   6  216.87   12.47
   0   6   6   72.27    5.02
   0   6   6   69.56    5.75
  -1  -6  -6    7.57    2.19
   1   6   6    5.45    2.10
   1   6   6    7.17    3.01
   2   6   6   -1.45    1.96
   2   6   6   -1.60    2.59
   3   6   6   22.35    3.73
   3   6   6   22.47    3.26
   4   6   6   56.02    5.12
   4   6   6   61.22    5.39
   5   6   6   13.11    3.67
   5   6   6   11.89    3.56
   6   6   6  132.83    9.01
   6   6   6  129.59    9.61
   7   6   6   -2.75    5.00
   7   6   6    1.19    3.49
   8   6   6   15.63    5.64
   5  -7  -6    0.55    3.31
   4  -7  -6    0.60    3.20
   3  -7  -6    4.60    2.87
  -2   7   6  101.86    7.55
   2  -7  -6  109.12    7.10
  -1   7   6   -0.70    3.12
   1  -7  -6   -0.98    2.27
   0   7   6   57.94    5.26
   0  -7  -6   55.47    4.30
   1   7   6   47.39    5.07
   2   7   6  361.91   19.43
   2   7   6  335.37   19.77
   3   7   6   71.82    6.21
   3   7   6   64.76    5.80
   4   7   6   46.43    5.08
   4   7   6   56.73    5.48
   5   7   6   35.18    4.59
   5   7   6   40.56    5.14
   6   7   6    1.22    3.93
   6   7   6    2.32    3.62
   7   7   6    9.61    4.68
   7   7   6   13.78    4.35
   4  -8  -6   18.04    4.19
   3  -8  -6   12.03    3.58
   2  -8  -6   43.97    4.58
  -1   8   6   25.82    4.67
   1  -8  -6   24.02    3.50
   0   8   6    4.72    3.86
   1   8   6    6.38    3.97
   2   8   6    8.91    4.33
   3   8   6    0.60    4.08
   3   8   6    1.00    3.14
   4   8   6  108.18    8.52
   4   8   6  106.92    8.31
   5   8   6    0.58    3.74
   5   8   6   -1.20    4.07
   6   8   6   64.46    6.89
   6   8   6   70.60    7.00
   3  -9  -6   -2.07    3.56
   0   9   6   54.49    6.60
   1   9   6   45.10    6.44
   2   9   6   59.20    6.99
   3   9   6   47.70    6.65
   4   9   6    0.68    4.95
   5   9   6    6.55    4.86
   0  10   6   32.46    7.05
   1  10   6    8.96    5.72
   2  10   6   12.82    6.21
   3  10   6   -3.25    5.50
   3   8  -7    3.14    6.86
   2   8  -7   21.09    8.29
   1   8  -7   -4.54    6.57
   0   8  -7  123.56   12.29
  -1   8  -7    4.91    4.26
  -2   8  -7   50.66    6.23
   5   7  -7   16.45    6.48
   4   7  -7   48.30    7.81
   3   7  -7   62.54    8.43
   2   7  -7   56.82    8.85
   1   7  -7   64.79    8.89
   0   7  -7    3.26    3.47
  -1   7  -7   16.22    3.96
  -2   7  -7   11.16    4.05
  -3   7  -7    4.98    4.28
  -4   7  -7   34.97    5.77
   6   6  -7   13.05    5.72
   5   6  -7    7.50    5.17
   4   6  -7   72.79    7.76
   3   6  -7    7.51    4.96
   2   6  -7  297.39   16.42
   2   6  -7  271.97   19.18
   1   6  -7   19.31    5.94
   1   6  -7   16.31    3.78
   0   6  -7  489.65   25.12
  -1   6  -7   45.49    4.49
  -2   6  -7   88.67    6.51
  -3   6  -7   28.92    4.41
  -4   6  -7   30.84    4.99
  -5   6  -7   24.61    5.41
   7   5  -7   23.13    6.03
   6   5  -7   61.35    7.26
   5   5  -7  114.08    9.24
   4   5  -7   61.77    6.69
   3   5  -7  228.39   15.91
   3   5  -7  259.16   13.67
   2   5  -7    6.47    3.18
   2   5  -7   10.42    4.72
   1   5  -7  249.95   13.85
   0   5  -7   93.49    6.53
  -1   5  -7    9.26    2.73
  -2   5  -7  322.31   16.94
  -3   5  -7   17.89    3.60
  -4   5  -7  120.64    8.06
  -5   5  -7    4.03    3.86
   7   4  -7    3.06    4.72
   6   4  -7  112.34    9.57
   5   4  -7   12.71    4.18
   4   4  -7  321.71   19.36
   4   4  -7  323.88   16.68
   3   4  -7   34.68    3.71
   3   4  -7   26.08    4.47
   2   4  -7 1150.49   65.12
   2   4  -7 1215.06   57.94
   1   4  -7  212.97   11.94
   0   4  -7  582.32   29.07
  -1   4  -7  639.64   31.76
  -2   4  -7   95.26    6.25
  -3   4  -7  149.82    8.95
  -4   4  -7    4.82    2.92
  -5   4  -7   96.27    6.97
  -6   4  -7    7.50    3.89
  -7   4  -7   44.13    5.90
   8   3  -7   20.76    5.83
   7   3  -7   75.66    7.71
   6   3  -7   23.43    4.70
   5   3  -7  120.06    7.30
   5   3  -7  115.85    9.00
   4   3  -7  130.23    9.28
   4   3  -7  143.65    7.99
   3   3  -7  456.70   26.05
   3   3  -7  459.40   23.11
   2   3  -7  579.52   28.96
   2   3  -7  577.85   32.55
   1   3  -7  136.37    8.40
   0   3  -7 1407.74   68.17
  -1   3  -7   85.09    5.55
  -2   3  -7 1004.34   48.96
  -3   3  -7   17.23    2.77
  -4   3  -7  469.35   23.75
  -5   3  -7   -0.36    2.73
  -6   3  -7   67.72    5.87
   6  -3   7   77.15    8.53
  -7   3  -7    9.04    3.80
   7  -3   7   12.91    6.46
   7   2  -7   15.90    4.95
   6   2  -7  253.35   13.35
   6   2  -7  244.50   15.59
   5   2  -7   58.70    4.50
   5   2  -7   66.17    5.87
   4   2  -7 1104.47   54.18
   4   2  -7 1127.86   60.98
   3   2  -7  214.45   11.19
   3   2  -7  202.00   12.57
   2   2  -7 1149.59   54.62
   2   2  -7 1092.58   60.95
   1   2  -7 1890.88   91.31
   0   2  -7  328.74   16.93
  -1   2  -7 1054.36   51.20
  -2   2  -7   15.58    2.40
  -3   2  -7  299.60   15.47
  -4   2  -7  232.60   12.61
  -4   2  -7  232.67   12.61
   5  -2   7  206.49   13.84
   6  -2   7   95.05    8.46
  -6   2  -7   76.42    5.99
  -7   2  -7   62.21    5.31
   7  -2   7   62.73    7.63
   8  -2   7   38.97    7.18
  -8   2  -7   40.99    4.82
   8   1  -7    6.33    5.27
   7   1  -7   31.65    5.29
   6   1  -7   67.08    6.19
   6   1  -7   55.03    4.48
   5   1  -7  127.74    8.65
   5   1  -7  109.99    7.07
   4   1  -7  606.96   30.83
   4   1  -7  643.26   34.75
   3   1  -7  279.90   14.47
   3   1  -7  278.20   16.10
   2   1  -7 2147.29  101.57
   2   1  -7 2074.34  113.37
   1   1  -7   29.78    2.95
   0   1  -7 2495.35  120.03
  -1   1  -7    0.87    1.68
  -2   1  -7 1588.91   76.59
   3  -1   7  133.11    8.86
  -3   1  -7  127.61    7.45
   4  -1   7  454.61   26.20
  -4   1  -7  460.68   22.99
   5  -1   7  100.59    7.97
  -5   1  -7  101.02    6.42
   6  -1   7   18.53    4.84
  -6   1  -7   17.21    3.14
   7  -1   7   83.36    8.35
  -8   1  -7    1.32    3.08
   8  -1   7    1.53    5.34
   7   0  -7   34.66    4.02
   7   0  -7   49.42    6.13
   6   0  -7  316.89   17.97
   6   0  -7  277.63   15.45
   5   0  -7  117.00    7.44
   5   0  -7  128.42    8.54
   4   0  -7  361.68   19.67
   4   0  -7  419.23   22.19
   3   0  -7  321.12   16.39
   2   0  -7   32.16    2.69
   2   0  -7   13.13    1.77
   1   0  -7 1239.83   66.71
   0   0  -7  209.79   11.29
  -1   0  -7 1042.62   50.78
   2   0   7  615.77   33.06
   2   0   7  593.13   31.22
  -2   0  -7  592.57   29.54
   3   0   7  718.24   40.67
   3   0   7  844.35   43.50
  -3   0  -7  816.23   38.68
  -4   0  -7  482.01   23.35
   4   0   7  465.77   24.48
   4   0   7  451.73   26.35
   5   0   7  256.41   15.93
  -5   0  -7  262.99   13.68
   6   0   7  243.51   15.66
  -6   0  -7  254.85   13.43
  -7   0  -7   89.98    6.09
   7   0   7   58.63    7.40
   8   0   7   71.00    7.87
   9   0   7    1.66    5.81
   7  -1  -7   13.16    3.25
   6  -1  -7  143.73    9.02
   6  -1  -7  159.92   10.52
   5  -1  -7   11.08    2.59
   5  -1  -7    4.58    1.34
   4  -1  -7  783.74   42.72
   4  -1  -7  779.38   38.38
   3  -1  -7    6.51    1.79
   3  -1  -7    4.51    1.81
   2  -1  -7 2521.27  124.67
   2  -1  -7 2675.47  139.13
   1  -1  -7   91.11    5.47
  -1   1   7   97.86    6.33
   1  -1  -7   85.97    5.30
   0   1   7  870.34   42.59
   0  -1  -7  779.30   40.23
   1   1   7  551.08   28.38
  -1  -1  -7  539.01   27.08
   1   1   7  545.13   29.69
   2   1   7  942.47   48.59
   2   1   7  949.42   51.51
  -2  -1  -7  963.39   46.41
   3   1   7  388.32   22.16
  -3  -1  -7  400.93   19.87
   3   1   7  401.11   20.84
   4   1   7   67.96    5.74
   4   1   7   69.98    4.94
  -4  -1  -7   70.86    4.77
  -5  -1  -7  250.32   13.53
   5   1   7  263.77   14.13
   5   1   7  268.61   15.68
  -6  -1  -7    1.89    2.29
   6   1   7    1.71    3.40
   7   1   7   62.50    6.51
   8   1   7   -6.44    4.45
   9   1   7    8.74    5.86
   8  -2  -7   36.30    4.78
   6  -2  -7   46.62    4.52
   5  -2  -7   43.46    3.96
   4  -2  -7   32.42    3.31
   4  -2  -7   30.61    3.44
   3  -2  -7  228.27   12.69
   3  -2  -7  249.77   13.63
  -2   2   7  298.59   18.25
   2  -2  -7  360.40   18.33
   1  -2  -7 1362.95   65.68
  -1   2   7 1358.83   69.34
   0  -2  -7 2323.89  112.07
   0   2   7 2349.17  117.98
  -1  -2  -7 1181.04   58.43
   1   2   7 1230.81   61.44
   1   2   7 1211.86   64.84
   2   2   7 1069.24   53.62
   2   2   7 1065.28   56.78
  -2  -2  -7 1021.91   51.14
   3   2   7  657.64   34.50
   3   2   7  684.36   36.73
   4   2   7  490.78   27.55
  -4  -2  -7  478.39   24.45
   4   2   7  512.97   25.75
  -5  -2  -7   68.42    4.39
   5   2   7   46.50    4.20
   5   2   7   78.08    5.98
   6   2   7  101.83    7.83
   7   2   7    5.16    4.32
   8   2   7   19.86    5.55
   9   2   7    9.72    5.99
   8  -3  -7   37.12    4.88
   7  -3  -7    7.26    4.03
   6  -3  -7  166.74   10.14
   5  -3  -7    7.15    2.63
   4  -3  -7  463.56   23.46
  -3   3   7   12.73    3.14
   3  -3  -7    8.53    2.21
  -2   3   7  590.67   31.37
   2  -3  -7  610.24   29.64
  -1   3   7   63.39    5.43
   1  -3  -7   94.23    5.13
   0   3   7   54.63    4.20
   0  -3  -7   51.78    3.78
  -1  -3  -7   35.19    2.69
   1   3   7   33.23    2.57
   1   3   7   34.20    3.17
   2   3   7   30.85    2.64
  -2  -3  -7   29.15    2.37
   2   3   7   22.68    2.76
   3   3   7  323.72   17.62
  -3  -3  -7  337.28   16.71
   4   3   7   25.09    3.03
  -4  -3  -7   25.06    2.71
   4   3   7   24.39    3.14
   5   3   7  218.37   13.23
   6   3   7   25.30    3.21
   6   3   7   20.44    4.19
   7   3   7   58.25    6.52
   8   3   7   13.79    4.91
   9   3   7    1.30    5.69
   7  -4  -7   15.90    3.99
   5  -4  -7   22.59    3.47
   4  -4  -7  100.55    6.70
  -4   4   7  102.08    7.14
   3  -4  -7   10.83    2.58
  -3   4   7    7.27    2.98
  -2   4   7  365.97   19.84
   2  -4  -7  372.47   18.79
  -1   4   7  114.01    7.37
   1  -4  -7  116.84    6.68
   0   4   7 1050.97   54.99
   0  -4  -7 1020.03   49.69
   0   4   7 1006.15   52.48
  -1  -4  -7    4.75    1.46
   1   4   7    1.12    1.12
  -2  -4  -7  310.52   15.28
   2   4   7  301.27   16.52
   3   4   7   18.27    2.80
   3   4   7   24.56    2.80
  -3  -4  -7   21.27    1.94
   4   4   7   54.82    4.77
   4   4   7   52.23    4.41
   5   4   7    4.34    2.54
   5   4   7    5.60    3.02
   6   4   7   10.56    3.64
   6   4   7    7.34    2.91
   7   4   7    8.43    3.97
   8   4   7    2.76    4.49
   9   4   7   14.38    6.01
   7  -5  -7    2.43    3.68
   6  -5  -7   65.23    5.93
   5  -5  -7   -0.59    3.46
   4  -5  -7   31.90    3.98
  -3   5   7   30.26    3.77
   3  -5  -7   31.34    3.57
  -2   5   7   38.92    4.24
   2  -5  -7   49.29    3.86
  -1   5   7   14.79    3.01
   1  -5  -7   20.71    2.60
   0   5   7   45.99    4.28
   0  -5  -7   39.22    3.39
   0   5   7   47.94    3.21
   1   5   7   81.04    6.17
   1   5   7   81.23    5.20
   2   5   7   40.38    3.31
   2   5   7   36.03    3.73
  -2  -5  -7   40.12    3.14
   3   5   7  198.35   11.90
   3   5   7  208.47   11.75
   4   5   7  156.24   10.20
   4   5   7  166.40    9.92
   5   5   7  155.43   11.02
   5   5   7  224.72   12.11
   6   5   7   18.77    4.10
   6   5   7   15.39    3.53
   7   5   7    4.24    3.25
   7   5   7    1.77    4.10
   8   5   7   -0.59    5.60
   6  -6  -7    7.43    3.88
   5  -6  -7   -1.42    3.15
   4  -6  -7   91.26    6.73
  -3   6   7   15.55    3.49
   3  -6  -7   24.64    3.80
   2  -6  -7   22.87    3.41
  -2   6   7   35.40    4.02
   1  -6  -7    3.88    2.09
  -1   6   7    7.41    2.84
   0  -6  -7   65.20    4.65
   1   6   7   11.86    2.99
  -1  -6  -7   13.37    2.18
   1   6   7   17.09    2.34
   2   6   7    8.77    2.99
   2   6   7   12.41    2.50
   3   6   7   -1.44    2.30
   3   6   7    2.46    3.06
   4   6   7    0.80    2.70
   4   6   7   -1.91    2.84
   5   6   7    2.19    3.15
   5   6   7   -0.24    3.27
   6   6   7    9.44    3.94
   6   6   7    1.50    3.61
   7   6   7    9.11    4.60
   7   6   7   11.65    3.98
   8   6   7    5.58    5.22
   5  -7  -7    4.36    3.44
   4  -7  -7   -0.35    3.05
   3  -7  -7    0.11    2.84
   2  -7  -7    1.67    2.69
  -2   7   7    2.23    3.36
   1  -7  -7  128.03    8.02
  -1   7   7  135.36    8.85
   0   7   7   32.47    4.54
   0  -7  -7   34.43    3.40
   1   7   7   15.35    3.79
   2   7   7   53.87    5.53
   3   7   7   19.03    3.53
   3   7   7   17.69    4.03
   4   7   7   10.06    3.80
   4   7   7   12.27    3.41
   5   7   7   -0.51    3.38
   5   7   7   -0.41    3.71
   6   7   7   -0.93    3.88
   6   7   7    1.98    3.61
   7   7   7    2.29    4.07
   7   7   7    1.41    5.57
   4  -8  -7    6.68    3.81
   3  -8  -7    4.58    3.28
   2  -8  -7   11.95    3.42
  -2   8   7   11.83    4.24
  -1   8   7   24.13    4.84
   1  -8  -7   25.33    3.60
   0   8   7   35.63    5.20
   1   8   7   -0.30    3.58
   2   8   7   38.26    5.23
   3   8   7    1.18    4.02
   4   8   7   31.63    5.22
   4   8   7   34.48    4.75
   5   8   7    0.85    3.98
   5   8   7    1.99    3.70
   6   8   7   12.03    4.50
   6   8   7    9.00    4.46
   3  -9  -7    1.63    3.56
   2  -9  -7    1.42    3.29
  -1   9   7   31.70    5.84
   0   9   7   32.38    5.85
   1   9   7    1.56    4.41
   2   9   7    1.44    4.81
   3   9   7    4.23    5.24
   4   9   7    7.13    5.12
   5   9   7   10.00    5.15
   0  10   7   23.96    6.84
   1  10   7    5.41    5.90
   2  10   7   13.57    6.20
   3  10   7   -3.86    5.72
   2   8  -8   15.77    8.11
   1   8  -8    3.58    7.58
   0   8  -8   -2.43    6.72
   4   7  -8   -3.89    5.66
   3   7  -8   -2.62    6.22
   2   7  -8    6.37    6.83
   1   7  -8    2.08    6.60
   0   7  -8   20.36    4.50
  -1   7  -8   -3.08    3.50
  -2   7  -8   24.98    4.75
  -3   7  -8    5.50    4.42
   6   6  -8   18.88    6.22
   5   6  -8    5.79    5.42
   4   6  -8   69.38    7.90
   3   6  -8   16.42    6.03
   2   6  -8   50.44    7.27
   2   6  -8   24.83    4.83
   1   6  -8   10.62    3.84
   1   6  -8    9.59    6.10
   0   6  -8   11.27    3.70
  -1   6  -8   -1.79    3.04
  -2   6  -8    4.20    3.41
  -3   6  -8    5.01    3.80
  -4   6  -8   26.47    4.94
  -5   6  -8    2.54    4.68
   6   5  -8    4.37    4.93
   5   5  -8    6.38    4.58
   4   5  -8   19.30    5.06
   3   5  -8   -1.25    3.02
   3   5  -8    5.16    4.44
   2   5  -8  106.59    7.69
   2   5  -8   98.98    9.34
   1   5  -8    1.08    3.00
   0   5  -8  131.62    8.53
  -1   5  -8   46.05    4.52
  -2   5  -8  108.50    7.23
  -3   5  -8   15.87    3.63
  -4   5  -8    7.95    3.63
  -5   5  -8   17.64    4.48
  -6   5  -8   -2.71    4.36
   7   4  -8   -0.66    4.55
   6   4  -8   65.59    7.25
   5   4  -8    4.42    4.01
   4   4  -8   51.74    4.36
   4   4  -8   46.08    5.49
   3   4  -8   99.29    6.97
   3   4  -8   92.32    7.82
   2   4  -8    2.43    2.71
   2   4  -8    1.54    3.54
   1   4  -8   63.19    5.44
   0   4  -8   83.74    5.97
  -1   4  -8  182.46   10.43
  -2   4  -8  118.96    7.64
  -3   4  -8   30.74    3.72
  -4   4  -8  219.50   12.45
  -5   4  -8    4.51    3.26
  -7   4  -8   -0.68    4.95
   7   3  -8    3.59    4.74
   6   3  -8   16.29    4.89
   5   3  -8    0.32    3.32
   5   3  -8    0.45    2.31
   4   3  -8  375.36   18.84
   4   3  -8  353.54   21.36
   3   3  -8   -3.43    2.07
   3   3  -8    1.20    2.88
   2   3  -8  338.91   19.35
   2   3  -8  312.80   17.10
   1   3  -8   37.00    4.08
   0   3  -8  574.65   28.77
  -1   3  -8  151.70    8.86
  -2   3  -8  117.78    7.26
  -3   3  -8  202.23   11.35
  -4   3  -8    2.83    2.64
  -5   3  -8   63.88    5.43
   6  -3   8   24.07    6.37
  -6   3  -8   39.25    4.74
  -7   3  -8   20.84    4.72
   7  -3   8   17.00    6.81
  -7   3  -8   20.78    4.73
   8   2  -8   42.70    6.75
   7   2  -8   12.34    4.89
   6   2  -8   52.26    6.03
   5   2  -8   61.99    6.29
   5   2  -8   72.58    5.22
   4   2  -8   14.08    2.67
   4   2  -8   18.73    3.54
   3   2  -8  192.75   11.76
   3   2  -8  185.01   10.45
   2   2  -8  546.25   26.91
   2   2  -8  523.12   29.96
   1   2  -8  342.60   17.92
   0   2  -8  677.87   33.72
  -1   2  -8  260.52   13.73
  -2   2  -8  785.68   38.63
  -3   2  -8    5.82    2.48
   4  -2   8  450.33   26.77
  -4   2  -8  467.45   23.31
   5  -2   8    5.74    4.25
  -5   2  -8    9.74    2.87
  -6   2  -8  101.96    7.32
   6  -2   8   90.73    9.03
   7  -2   8   23.02    6.26
  -8   2  -8   -1.69    3.55
   8  -2   8    5.22    5.62
   7   1  -8    0.06    4.26
   6   1  -8  255.93   15.16
   6   1  -8  218.92   12.72
   5   1  -8   11.59    2.61
   5   1  -8   10.98    3.64
   4   1  -8 1107.55   52.29
   4   1  -8 1036.79   58.59
   3   1  -8    7.49    2.37
   3   1  -8    8.55    2.33
   2   1  -8  934.16   51.70
   2   1  -8  968.88   46.59
   1   1  -8   46.91    3.91
   0   1  -8  523.15   26.37
  -1   1  -8 1074.07   52.32
  -2   1  -8   45.59    3.68
  -3   1  -8 1221.94   59.61
   3  -1   8 1235.07   67.08
  -4   1  -8  129.01    7.78
   4  -1   8  131.83    9.17
   5  -1   8  194.69   12.87
  -5   1  -8  192.95   10.92
   6  -1   8  224.65   14.61
  -6   1  -8  205.39   11.96
  -7   1  -8   45.54    4.71
   7  -1   8   51.37    6.86
   8  -1   8   27.34    6.39
  -8   1  -8   29.90    4.20
   7   0  -8   48.47    4.67
   6   0  -8    4.95    3.65
   6   0  -8    9.69    2.83
   5   0  -8   45.13    4.84
   5   0  -8   46.57    4.14
   4   0  -8   46.73    4.57
   4   0  -8   47.84    4.04
   3   0  -8  100.50    6.48
   2   0  -8 1459.65   83.19
   2   0  -8 1639.65   74.84
   1   0  -8   92.91    5.48
   1   0  -8   67.58    4.96
   0   0  -8 1153.64   56.23
  -1   0  -8   51.36    4.24
  -2   0  -8 2013.66   97.75
   2   0   8 2046.99  109.33
   3   0   8    5.78    2.69
   3   0   8    5.16    1.91
  -3   0  -8    4.22    1.94
   4   0   8  574.18   27.71
  -4   0  -8  476.06   26.21
   4   0   8  532.58   29.66
   5   0   8  197.97   12.70
  -5   0  -8  198.98   11.03
   6   0   8  141.48   10.37
  -6   0  -8  146.95    8.70
   7   0   8   71.04    7.66
  -7   0  -8   74.14    5.81
   8   0   8    2.29    4.92
   8  -1  -8   20.38    4.12
   7  -1  -8   10.55    3.31
   6  -1  -8  269.42   14.57
   5  -1  -8   11.96    3.14
   5  -1  -8    9.32    2.70
   4  -1  -8 1070.01   56.44
   4  -1  -8 1004.52   50.61
   3  -1  -8  646.51   33.48
   3  -1  -8  708.42   37.06
   2  -1  -8  631.34   31.95
   2  -1  -8  660.55   35.15
   1  -1  -8  823.28   45.50
   1  -1  -8  868.51   41.35
   0  -1  -8  142.97    8.72
   0   1   8  159.64    9.53
   1   1   8 4411.26  227.84
  -1  -1  -8 4641.61  216.77
   2   1   8  685.45   37.66
  -2  -1  -8  678.54   34.17
   2   1   8  703.49   35.74
   3   1   8 1133.02   57.24
   3   1   8 1119.85   60.86
  -3  -1  -8 1110.47   54.48
  -4  -1  -8  748.66   36.58
   4   1   8  741.98   41.11
   5   1   8  255.47   15.54
  -5  -1  -8  248.13   13.59
   5   1   8  270.82   14.27
  -6  -1  -8  168.79    9.71
   6   1   8  169.95   11.55
   7   1   8    9.87    4.37
   8   1   8   48.31    6.93
   9   1   8   -3.63    5.69
   8  -2  -8   -0.18    5.01
   7  -2  -8   20.16    3.94
   6  -2  -8   33.96    4.17
   5  -2  -8    0.94    2.42
   4  -2  -8  321.24   16.75
   3  -2  -8  342.64   18.65
   3  -2  -8  327.93   17.28
   2  -2  -8 1539.00   82.94
   2  -2  -8 1547.55   74.85
  -2   2   8 1562.41   79.14
  -1   2   8  102.63    7.39
   1  -2  -8  113.60    6.57
   0  -2  -8 1931.18   93.44
   0   2   8 1951.36   98.39
  -1  -2  -8  247.30   13.71
   1   2   8  269.52   14.42
   1   2   8  265.52   14.53
  -2  -2  -8  954.87   46.20
   2   2   8  947.29   48.34
   2   2   8  931.35   51.05
   3   2   8  484.72   26.83
  -3  -2  -8  496.53   24.49
   3   2   8  471.98   25.34
   4   2   8  279.57   15.43
   4   2   8  289.51   16.59
  -5  -2  -8  372.30   19.74
   5   2   8  412.97   22.61
   6   2   8    1.96    3.65
   7   2   8  163.08   11.72
   8   2   8   17.30    5.52
   9   2   8    9.58    5.69
   7  -3  -8   16.34    3.96
   6  -3  -8   50.79    5.06
   5  -3  -8  221.20   12.35
   4  -3  -8  276.27   14.73
  -3   3   8  813.77   42.12
   3  -3  -8  801.51   39.69
   2  -3  -8  170.90    9.34
  -2   3   8  159.13   10.14
  -1   3   8 1340.30   68.33
   1  -3  -8 1339.26   64.78
   0   3   8  596.00   30.95
   0  -3  -8  590.56   29.24
   1   3   8 1598.75   80.30
   1   3   8 1582.87   84.71
  -1  -3  -8 1564.30   76.20
   2   3   8 1317.03   66.10
  -2  -3  -8 1093.69   59.27
   2   3   8 1267.82   62.54
   3   3   8  534.15   27.50
   3   3   8  534.76   29.02
  -3  -3  -8  507.35   26.13
  -4  -3  -8  604.50   29.42
   4   3   8  578.95   32.80
   4   3   8  594.23   30.84
   5   3   8   35.57    3.79
   5   3   8   35.84    4.39
   6   3   8  175.82   10.24
   6   3   8  169.54   11.35
   7   3   8   -0.20    3.83
   8   3   8   57.24    7.24
   9   3   8    5.40    5.39
   7  -4  -8    6.69    4.00
   5  -4  -8   40.23    4.34
   4  -4  -8  191.33   10.87
   3  -4  -8  132.10    8.05
  -3   4   8  138.71    8.96
   2  -4  -8 1254.34   61.56
  -2   4   8 1285.48   65.00
  -1   4   8    5.61    2.58
   1  -4  -8    9.84    2.06
   0  -4  -8  462.75   22.93
   0   4   8  459.49   24.37
   1   4   8  129.04    8.20
   1   4   8  132.41    7.50
  -1  -4  -8  126.92    7.24
  -2  -4  -8   46.98    3.46
   2   4   8   44.28    3.44
   2   4   8   36.38    3.76
  -3  -4  -8  739.26   35.74
   3   4   8  732.19   38.00
   3   4   8  733.81   40.06
   4   4   8    2.13    2.40
   4   4   8    4.02    2.48
   5   4   8  479.96   25.47
   6   4   8   35.26    4.11
   6   4   8   29.85    4.58
   7   4   8  103.79    8.78
   8   4   8    4.86    5.03
   6  -5  -8   -2.35    3.56
   5  -5  -8   40.01    4.68
   4  -5  -8   27.84    3.72
  -3   5   8  315.80   17.49
   3  -5  -8  306.28   16.44
  -2   5   8  606.40   31.09
   2  -5  -8  572.45   29.36
  -1   5   8  242.94   13.94
   1  -5  -8  253.47   13.14
   0   5   8  725.91   38.00
   0  -5  -8  738.32   35.84
   1   5   8  437.36   23.56
  -1  -5  -8  433.97   21.99
   1   5   8  455.15   24.13
   2   5   8  807.77   42.06
   2   5   8  812.64   44.05
  -2  -5  -8  819.50   39.46
   3   5   8  120.67    7.77
   3   5   8  121.74    8.02
   4   5   8  308.77   17.96
   4   5   8  317.40   17.22
   5   5   8    7.13    3.19
   5   5   8    0.22    2.70
   6   5   8   58.86    5.35
   7   5   8   13.39    4.14
   7   5   8   11.02    5.23
   8   5   8   12.17    4.91
   6  -6  -8   29.02    4.72
   5  -6  -8    1.00    3.29
   4  -6  -8  130.90    9.06
   3  -6  -8    2.41    2.75
  -3   6   8    1.66    3.21
  -2   6   8  250.37   14.48
   2  -6  -8  248.26   13.44
   1  -6  -8  164.83    9.34
  -1   6   8  161.52   10.17
   0   6   8    6.65    3.10
   0  -6  -8    3.49    2.11
   2   6   8   17.40    2.46
   2   6   8   14.16    3.33
   3   6   8  269.86   15.48
   3   6   8  278.21   15.85
   4   6   8   20.81    3.93
   4   6   8   25.32    3.57
   5   6   8  112.12    8.42
   5   6   8  132.89    8.44
   5   6   8  112.54    8.43
   6   6   8   28.78    4.57
   6   6   8   22.46    4.04
   7   6   8   20.44    4.88
   7   6   8   17.53    4.36
   8   6   8   -1.25    5.20
   5  -7  -8    6.61    3.85
   4  -7  -8   49.79    5.04
   3  -7  -8   69.52    5.75
   2  -7  -8  292.02   15.77
  -2   7   8  295.07   16.81
   1  -7  -8   37.63    4.16
   1  -7  -8   37.76    4.16
  -1   7   8   20.37    4.26
   0   7   8  292.93   15.12
   0  -7  -8  228.45   13.50
   1   7   8   29.60    4.27
   2   7   8  117.24    8.30
   3   7   8    3.16    3.61
   4   7   8   35.71    4.69
   4   7   8   31.88    4.14
   5   7   8   33.86    4.62
   5   7   8   37.92    5.07
   6   7   8    0.65    3.84
   6   7   8    1.07    3.93
   7   7   8   14.00    4.85
   7   7   8    3.85    4.17
   4  -8  -8    3.43    3.56
   3  -8  -8   15.18    3.94
  -2   8   8    6.62    4.20
   2  -8  -8    6.78    3.31
  -1   8   8   86.62    7.24
   1  -8  -8   85.71    6.34
   0   8   8   40.63    5.31
   0   8   8   40.32    5.30
   1   8   8   91.53    7.78
   2   8   8   33.99    5.27
   3   8   8   40.16    5.68
   4   8   8   17.98    4.60
   5   8   8    7.89    4.30
   6   8   8   21.24    4.92
   6   8   8   12.09    4.81
   2  -9  -8   28.52    4.43
  -1   9   8    5.01    4.81
   0   9   8    3.81    4.64
   1   9   8   -0.42    4.88
   2   9   8   -2.52    4.81
   3   9   8   18.74    5.37
   4   9   8    2.30    4.66
   5   9   8   33.44    6.02
   1  10   8   16.88    6.45
   2  10   8   14.29    6.34
   4   7  -9    2.07    6.47
   3   7  -9   -6.58    6.57
   2   7  -9   -3.03    6.74
   1   7  -9    6.55    6.96
   0   7  -9    1.35    4.01
  -1   7  -9   18.78    4.60
  -2   7  -9    5.43    4.17
   5   6  -9   11.97    5.74
   4   6  -9   10.85    5.70
   3   6  -9   65.23    8.57
   2   6  -9   51.27    8.24
   1   6  -9   22.42    7.17
   1   6  -9   22.28    4.86
   0   6  -9   -0.34    3.38
  -1   6  -9    4.11    3.34
  -2   6  -9   -0.67    3.49
  -3   6  -9    0.48    3.83
  -4   6  -9    1.80    4.00
   6   5  -9    2.91    5.10
   5   5  -9   -0.49    4.77
   4   5  -9   -2.25    4.24
   3   5  -9   16.02    3.94
   3   5  -9   15.52    5.33
   2   5  -9   15.63    5.73
   2   5  -9   21.26    4.15
   1   5  -9    7.55    5.33
   1   5  -9   12.36    3.95
   0   5  -9    9.85    3.24
  -1   5  -9   26.60    3.84
  -2   5  -9   25.82    3.91
  -3   5  -9   17.23    3.88
  -4   5  -9   16.59    4.16
  -5   5  -9    7.26    4.16
   7   4  -9   15.50    5.70
   6   4  -9   27.27    5.75
   5   4  -9    2.40    4.24
   4   4  -9   18.05    4.33
   4   4  -9   11.18    3.14
   3   4  -9   38.72    4.35
   3   4  -9   33.09    5.35
   2   4  -9   14.48    4.49
   2   4  -9   18.48    3.57
   1   4  -9    4.96    3.27
   0   4  -9   27.41    3.89
  -1   4  -9    2.88    2.63
  -2   4  -9    8.37    2.98
  -3   4  -9    5.64    3.19
  -4   4  -9    1.56    3.06
  -5   4  -9   -0.24    3.25
  -6   4  -9    2.09    3.94
   7   3  -9   -3.68    4.51
   6   3  -9   19.42    5.16
   5   3  -9   14.32    4.10
   5   3  -9   12.48    2.88
   4   3  -9    3.35    3.36
   4   3  -9    4.34    2.55
   3   3  -9   -0.37    3.06
   3   3  -9   -0.49    2.46
   2   3  -9    5.45    2.71
   2   3  -9    4.33    3.35
   1   3  -9    1.36    2.50
   0   3  -9   71.84    5.63
  -1   3  -9   12.04    2.79
  -2   3  -9   57.53    4.85
  -3   3  -9    6.40    2.94
  -4   3  -9   24.85    3.67
  -5   3  -9   -0.39    3.15
  -6   3  -9   15.51    3.98
  -7   3  -9    1.31    3.88
   7   2  -9    2.87    4.87
   6   2  -9    6.73    4.33
   5   2  -9   31.89    4.72
   5   2  -9   21.42    3.48
   4   2  -9   74.69    5.65
   4   2  -9   73.72    6.31
   3   2  -9   18.18    3.34
   3   2  -9   11.42    2.80
   2   2  -9   88.31    7.16
   2   2  -9  106.84    6.68
   1   2  -9  183.10   10.67
   0   2  -9  171.02   10.12
  -1   2  -9    1.24    2.23
  -2   2  -9   17.76    2.82
  -3   2  -9   22.95    3.42
  -4   2  -9   36.92    4.13
  -5   2  -9    6.11    2.99
   5  -2   9   10.79    4.96
   6  -2   9   33.28    6.49
  -6   2  -9   28.36    4.31
   7  -2   9    3.76    5.93
  -7   2  -9    2.87    3.30
   6   1  -9   20.37    4.69
   6   1  -9   21.76    3.41
   5   1  -9    2.87    2.49
   5   1  -9    9.14    3.71
   4   1  -9   20.47    3.71
   4   1  -9   27.28    3.19
   3   1  -9   13.04    2.75
   3   1  -9   13.17    2.96
   2   1  -9   49.97    4.36
   2   1  -9   47.59    4.32
   1   1  -9   12.74    2.66
   0   1  -9  548.12   27.69
  -1   1  -9    3.16    2.30
  -2   1  -9  485.29   24.46
  -3   1  -9   20.79    3.14
   4  -1   9  113.82    8.80
  -4   1  -9  112.83    7.22
   5  -1   9   34.41    5.38
  -5   1  -9   30.43    3.94
   6  -1   9   74.91    7.76
  -6   1  -9   68.74    5.73
  -7   1  -9   18.03    3.78
   7  -1   9   19.96    5.73
   8  -1   9    8.59    6.04
  -8   1  -9    6.09    3.56
   7   0  -9    1.44    3.04
   6   0  -9   19.50    3.43
   5   0  -9   24.63    3.43
   5   0  -9   29.87    4.32
   4   0  -9  417.91   21.43
   3   0  -9   25.19    3.05
   3   0  -9   18.69    2.96
   2   0  -9  370.26   19.19
   2   0  -9  304.96   17.50
   1   0  -9   11.30    2.02
   1   0  -9   11.96    2.64
   0   0  -9  117.93    7.47
  -1   0  -9  115.58    7.63
  -2   0  -9   10.96    2.51
   3   0   9  126.71    7.90
  -3   0  -9   99.29    7.00
   4   0   9  105.11    8.29
  -4   0  -9  118.58    7.21
  -5   0  -9  149.46    8.91
   5   0   9  145.10   10.20
   6   0   9    8.55    4.23
  -6   0  -9   16.80    3.31
   7   0   9    2.28    4.49
  -7   0  -9    8.15    3.23
   8   0   9   11.96    5.94
   8  -1  -9   -0.37    3.52
   7  -1  -9   19.14    3.77
   6  -1  -9    1.17    2.64
   5  -1  -9    2.83    2.66
   4  -1  -9  189.02   11.10
   4  -1  -9  204.25   11.97
   3  -1  -9    0.94    2.31
   3  -1  -9    3.49    2.13
   2  -1  -9  263.23   15.36
   2  -1  -9  318.55   16.55
   1  -1  -9   46.96    3.97
   1  -1  -9   47.24    3.52
   0  -1  -9 2492.32  124.58
   0   1   9 2686.74  131.26
   1   1   9  313.28   17.77
  -1  -1  -9  331.02   16.95
  -2  -1  -9  824.04   39.41
   2   1   9  780.37   43.29
   2   1   9  779.38   41.16
   3   1   9    2.52    2.51
   3   1   9    5.37    2.41
  -3  -1  -9    3.56    2.31
   4   1   9  161.23   10.44
   4   1   9  187.56   11.42
  -4  -1  -9  199.33   10.28
   5   1   9   35.52    3.89
   5   1   9   35.43    4.72
  -5  -1  -9   36.08    3.65
  -6  -1  -9   10.22    2.88
   6   1   9   10.99    4.25
   7   1   9   91.08    8.53
   8   1   9    7.58    5.65
   7  -2  -9   -0.97    3.10
   6  -2  -9   24.32    3.94
   5  -2  -9    6.07    2.93
   4  -2  -9  391.59   20.20
   3  -2  -9  235.80   12.90
   2  -2  -9   74.57    5.35
   1  -2  -9  208.72   11.57
  -1   2   9  200.92   12.52
   1  -2  -9  220.80   11.70
   0  -2  -9  162.62    9.44
   0   2   9  171.16   10.10
   1   2   9  109.86    6.73
   1   2   9  112.64    7.20
  -1  -2  -9  110.22    7.08
   2   2   9  196.37   11.94
  -2  -2  -9  225.08   11.58
   2   2   9  203.76   11.84
   3   2   9  714.87   39.13
   3   2   9  696.49   36.98
  -3  -2  -9  732.41   35.53
   4   2   9  156.14    9.03
   4   2   9  134.13    9.47
  -4  -2  -9  153.19    8.83
   5   2   9  121.22    7.90
   5   2   9   84.82    6.51
   6   2   9   90.72    7.51
   7   2   9    1.77    4.43
   8   2   9   21.14    5.50
   7  -3  -9    4.17    3.76
   6  -3  -9    7.61    3.47
   5  -3  -9   51.29    4.75
   4  -3  -9  101.80    6.83
   3  -3  -9    3.21    2.31
   2  -3  -9  450.01   21.70
  -2   3   9  398.24   23.09
  -1   3   9  139.76    8.53
   1  -3  -9  127.24    7.77
   0  -3  -9 1005.22   48.22
   0   3   9  971.72   50.82
  -1  -3  -9    4.95    1.97
   1   3   9    1.86    1.26
   1   3   9    0.36    2.28
   2   3   9  731.86   39.21
  -2  -3  -9  699.40   35.56
   2   3   9  732.72   37.45
   3   3   9   77.29    5.40
   3   3   9   66.60    5.62
   4   3   9   39.91    4.17
   4   3   9   35.05    4.00
  -4  -3  -9   45.12    3.98
   5   3   9  241.87   14.98
   5   3   9  251.24   13.92
   6   3   9   11.95    3.41
   6   3   9   14.66    3.88
   7   3   9  165.49   11.81
   8   3   9    1.53    4.64
   7  -4  -9   -7.65    4.35
   6  -4  -9   17.24    3.91
   5  -4  -9    5.00    3.03
   4  -4  -9   13.06    3.24
   3  -4  -9  231.97   12.45
  -3   4   9  212.88   13.38
   2  -4  -9    7.55    2.58
  -2   4   9    6.26    3.23
  -1   4   9  148.47    9.29
   1  -4  -9  142.62    8.43
   0   4   9  155.95    9.56
   1   4   9  459.48   23.99
   1   4   9  412.82   23.44
  -1  -4  -9  445.84   22.09
   2   4   9  503.13   27.19
   2   4   9  525.00   28.19
  -3  -4  -9  529.98   27.43
   3   4   9  568.51   30.65
   3   4   9  572.72   29.30
   4   4   9  281.73   17.72
   4   4   9  341.87   17.14
   5   4   9   57.09    5.02
   5   4   9   54.32    5.29
   6   4   9   82.95    6.38
   6   4   9   77.65    6.97
   7   4   9    1.56    4.27
   8   4   9   14.24    5.38
   6  -5  -9    6.30    4.41
   6  -5  -9    6.26    4.41
   5  -5  -9   30.42    4.33
   4  -5  -9   76.40    6.10
  -3   5   9    2.57    3.55
   3  -5  -9    3.04    2.65
  -2   5   9   76.23    6.22
   2  -5  -9   77.21    5.74
   1  -5  -9    6.76    2.23
  -1   5   9    3.44    3.16
   0  -5  -9  351.41   18.08
   0   5   9  358.04   19.45
  -1  -5  -9   74.45    5.00
   1   5   9   71.64    5.82
   2   5   9  360.24   20.23
   2   5   9  383.22   20.75
  -2  -5  -9  378.48   18.81
   3   5   9  312.73   17.73
   3   5   9  342.36   18.38
   3   5   9  312.87   17.73
   4   5   9    1.69    2.53
   4   5   9    0.86    2.86
   5   5   9  329.77   19.19
   6   5   9   -1.81    3.42
   6   5   9   -0.55    3.31
   7   5   9  157.42    9.64
   7   5   9  115.68   10.13
   8   5   9   10.95    5.44
   6  -6  -9    0.53    3.59
   4  -6  -9   10.75    3.70
  -3   6   9  118.49    8.68
   3  -6  -9  121.13    8.05
   2  -6  -9  127.28    7.93
  -2   6   9  119.16    8.69
  -1   6   9   84.81    6.99
   1  -6  -9   90.31    6.16
   0  -6  -9  230.38   11.89
   0   6   9  204.10   12.89
   1   6   9  237.28   13.02
  -1  -6  -9  210.21   11.70
   2   6   9  138.76    9.01
   3   6   9  142.14    8.93
   3   6   9  140.44    9.22
   4   6   9  170.48   10.63
   4   6   9  154.85   10.12
   5   6   9    8.61    3.59
   5   6   9   12.87    3.88
   6   6   9   11.57    3.99
   6   6   9   10.41    4.36
   7   6   9    3.46    4.54
   7   6   9    3.61    4.54
   7   6   9   10.40    4.25
   8   6   9   13.73    5.45
   5  -7  -9   24.88    4.56
   4  -7  -9   35.70    4.96
   3  -7  -9   24.17    4.95
   2  -7  -9   11.40    3.28
  -2   7   9   21.22    4.50
   1  -7  -9    3.94    2.77
  -1   7   9    4.20    3.63
   0  -7  -9  116.10    7.27
   0   7   9  114.15    8.47
   2   7   9    2.51    3.77
   3   7   9  348.76   19.57
   4   7   9   54.39    5.88
   5   7   9   91.37    7.43
   6   7   9   12.55    4.22
   6   7   9   20.59    4.56
   7   7   9   39.46    6.00
   7   7   9   43.09    5.73
   4  -8  -9    9.29    4.02
   3  -8  -9   15.00    3.99
  -2   8   9   38.58    5.80
   2  -8  -9   33.32    4.42
  -1   8   9   30.09    5.03
   1  -8  -9   27.15    3.84
   0   8   9   13.58    4.46
   1   8   9   11.07    4.18
   2   8   9   50.70    5.86
   3   8   9   25.88    5.22
   4   8   9   56.08    6.49
   5   8   9   17.56    4.71
   6   8   9   12.46    4.92
   2  -9  -9    5.58    3.70
  -1   9   9   13.82    5.22
   0   9   9    2.44    4.77
   1   9   9   94.16    8.50
   2   9   9   13.72    5.27
   3   9   9  100.47    9.06
   4   9   9   54.47    7.03
   5   9   9   11.18    5.01
   2   7 -10   -8.62    6.85
   1   7 -10   69.99   10.06
   0   7 -10   19.53    5.38
  -1   7 -10   64.59    6.78
   4   6 -10   28.60    6.98
   3   6 -10   -1.47    6.00
   2   6 -10   11.62    7.33
   1   6 -10    3.44    4.43
   1   6 -10    6.91    6.34
   0   6 -10   30.14    5.11
  -1   6 -10   56.25    5.98
  -2   6 -10    8.98    4.01
  -3   6 -10   42.58    5.37
  -4   6 -10    3.56    4.40
   5   5 -10  151.05   11.85
   4   5 -10    4.15    4.92
   3   5 -10  215.50   15.42
   2   5 -10    1.20    3.60
   2   5 -10    0.17    5.29
   1   5 -10  201.72   15.37
   1   5 -10  199.01   12.63
   0   5 -10   50.20    5.52
  -1   5 -10   90.17    7.06
  -2   5 -10    8.98    3.43
  -3   5 -10    2.54    3.61
  -4   5 -10   17.77    4.48
  -5   5 -10   -0.39    3.80
   6   4 -10    4.71    4.98
   5   4 -10    7.86    4.69
   4   4 -10   75.03    7.65
   4   4 -10   82.96    6.23
   3   4 -10   35.97    4.61
   3   4 -10   41.33    5.94
   2   4 -10   18.07    4.95
   2   4 -10   22.31    3.94
   1   4 -10  127.66    8.92
   0   4 -10   48.50    5.18
  -1   4 -10  173.98   10.58
  -2   4 -10   -1.51    2.73
  -3   4 -10  140.50    8.93
  -4   4 -10    0.62    3.19
  -5   4 -10   17.22    4.06
  -6   4 -10    0.76    3.89
   7   3 -10   48.53    6.99
   6   3 -10   12.12    5.06
   5   3 -10  346.91   21.11
   4   3 -10   29.20    3.79
   4   3 -10   25.04    4.54
   3   3 -10  141.23    8.38
   3   3 -10  109.00    8.93
   2   3 -10   44.90    4.68
   2   3 -10   48.02    5.65
   1   3 -10  177.19   10.76
   0   3 -10   99.99    7.48
  -1   3 -10    8.81    3.12
  -2   3 -10  142.54    8.78
  -3   3 -10    5.78    2.94
  -4   3 -10   55.21    5.24
  -5   3 -10    3.73    3.32
  -6   3 -10   31.61    4.91
  -7   3 -10    0.27    3.84
   6   2 -10    6.80    4.52
   5   2 -10    4.60    2.92
   5   2 -10   -1.00    3.69
   4   2 -10   66.40    6.11
   4   2 -10   62.88    5.20
   3   2 -10  380.42   22.42
   3   2 -10  393.43   20.13
   2   2 -10   47.01    4.62
   2   2 -10   43.50    4.81
   1   2 -10  387.14   20.34
   0   2 -10   36.28    4.25
  -1   2 -10  383.52   20.10
  -2   2 -10   10.48    2.85
  -3   2 -10  177.55   10.31
  -4   2 -10   -0.26    2.92
  -5   2 -10   36.54    4.41
  -6   2 -10   -0.04    3.21
   6  -2  10    4.85    5.36
  -7   2 -10    7.11    3.86
   7  -2  10    0.59    6.29
   6   1 -10   36.56    4.29
   5   1 -10  164.93   11.39
   4   1 -10  225.68   13.45
   4   1 -10  202.32   12.03
   3   1 -10    7.12    2.55
   3   1 -10    9.49    2.99
   2   1 -10   94.07    6.65
   2   1 -10   87.21    6.60
   1   1 -10   -1.62    2.29
   0   1 -10  195.02   11.24
  -1   1 -10    2.15    2.63
  -2   1 -10  183.19   10.49
  -3   1 -10   18.49    3.31
   4  -1  10  109.85    8.59
  -4   1 -10   95.14    7.09
  -5   1 -10    1.35    3.09
   5  -1  10    3.53    3.97
   6  -1  10   48.81    6.75
  -6   1 -10   50.03    5.19
   7  -1  10    2.70    5.52
  -7   1 -10   -1.08    3.44
   8  -1  10   10.47    6.20
  -8   1 -10    7.74    3.86
   7   0 -10   37.16    4.59
   6   0 -10    1.28    2.92
   5   0 -10  143.15    8.95
   4   0 -10  126.46    7.72
   4   0 -10  101.67    7.96
   3   0 -10  832.67   45.00
   3   0 -10  808.15   40.66
   2   0 -10   53.81    4.48
   2   0 -10   51.46    4.47
   1   0 -10  485.12   23.17
   1   0 -10  421.74   24.89
   0   0 -10   70.99    5.48
  -1   0 -10  161.51    9.82
  -2   0 -10   11.14    2.86
   3   0  10   47.26    4.73
  -3   0 -10   47.30    4.44
  -4   0 -10   16.91    3.18
   4   0  10   11.82    3.68
   5   0  10    3.92    3.99
  -5   0 -10    3.54    2.86
  -6   0 -10   25.79    3.98
   6   0  10   27.02    5.23
   7   0  10    0.89    4.80
  -7   0 -10    6.53    3.41
   8   0  10    6.50    5.62
   7  -1 -10    3.66    3.46
   6  -1 -10   13.64    3.57
   5  -1 -10    3.45    2.86
   4  -1 -10   54.11    4.84
   3  -1 -10  187.42   10.87
   2  -1 -10    2.95    2.30
   2  -1 -10   -0.72    1.76
   1  -1 -10   57.00    4.07
   1  -1 -10   54.27    4.53
   0  -1 -10   10.45    2.82
   1   1  10   13.83    3.55
  -1  -1 -10   20.90    3.25
   2   1  10  357.99   19.16
  -2  -1 -10  359.23   18.22
   2   1  10  321.93   19.50
  -3  -1 -10   19.12    3.40
   3   1  10   20.28    3.23
   3   1  10   18.57    3.59
   4   1  10  157.68    9.68
  -4  -1 -10  159.14    9.13
   4   1  10  138.59    9.78
  -5  -1 -10   -0.02    2.43
   5   1  10    2.55    3.49
   5   1  10    4.98    3.01
  -6  -1 -10  104.53    6.90
   6   1  10   88.29    8.02
   7   1  10   -0.18    4.63
   8   1  10    2.14    5.64
   7  -2 -10   41.08    4.95
   6  -2 -10    1.49    3.28
   5  -2 -10  113.92    7.84
   4  -2 -10   10.04    3.09
   3  -2 -10  415.46   21.48
   2  -2 -10    5.81    2.48
   1  -2 -10   40.96    3.88
  -1   2  10   31.63    4.39
   0   2  10   54.83    5.25
   0  -2 -10   53.75    4.54
  -1  -2 -10    2.23    2.31
   1   2  10   11.36    2.99
   2   2  10   23.73    3.53
   2   2  10   20.47    2.75
  -2  -2 -10   20.28    3.22
   3   2  10    3.37    2.38
  -3  -2 -10    8.63    2.78
   3   2  10    8.81    2.98
   4   2  10   30.14    3.93
  -4  -2 -10   27.98    3.85
   4   2  10   30.71    3.83
  -5  -2 -10    1.13    2.64
   5   2  10   -0.92    2.73
   5   2  10   -1.06    3.13
   6   2  10    4.65    3.88
   7   2  10   17.57    4.76
   8   2  10    1.79    5.15
   7  -3 -10    5.73    4.13
   6  -3 -10   20.77    4.17
   5  -3 -10   61.01    5.49
   4  -3 -10    5.02    2.90
   3  -3 -10  202.48   11.48
   2  -3 -10   26.85    3.34
  -2   3  10   26.73    4.41
  -1   3  10   78.51    6.43
   1  -3 -10   79.50    5.84
   0  -3 -10   70.62    5.31
   0   3  10   59.73    5.35
   1   3  10    1.15    1.34
   1   3  10    0.02    2.61
  -1  -3 -10   -3.88    1.95
   2   3  10  335.04   18.32
   2   3  10  357.34   18.69
  -2  -3 -10  299.88   17.35
  -3  -3 -10   67.27    4.98
   3   3  10   55.14    4.91
   3   3  10   54.73    4.85
  -4  -3 -10  128.73    8.04
   4   3  10  130.70    8.35
   4   3  10  120.45    8.44
   5   3  10   10.34    3.31
   5   3  10   14.01    3.45
   6   3  10   49.47    5.49
   6   3  10   54.24    5.25
   7   3  10   -4.21    4.11
   8   3  10    8.09    5.34
   6  -4 -10   10.14    3.99
   5  -4 -10   15.61    3.63
   4  -4 -10    1.36    2.92
  -3   4  10    0.31    3.47
   3  -4 -10    5.75    2.80
  -2   4  10   54.89    5.61
   2  -4 -10   57.48    4.65
   1  -4 -10   49.16    4.26
  -1   4  10   46.58    4.93
   0   4  10    7.21    3.25
   0  -4 -10    6.55    2.24
  -1  -4 -10   22.63    2.86
   1   4  10   17.40    3.66
  -2  -4 -10  113.40    6.99
   2   4  10  111.68    6.92
   2   4  10  105.60    7.66
   3   4  10    9.45    3.05
  -3  -4 -10   15.83    2.56
   3   4  10   12.62    2.70
   4   4  10    3.27    2.85
   4   4  10   -4.14    2.82
   5   4  10   11.46    3.53
   5   4  10    7.53    3.27
   6   4  10    3.47    3.35
   6   4  10   -3.59    3.52
   7   4  10   10.11    4.72
   8   4  10    2.27    4.71
   6  -5 -10    3.90    3.93
   5  -5 -10   14.03    4.01
   4  -5 -10    3.55    3.21
   3  -5 -10   35.65    4.25
  -3   5  10   37.73    5.06
   2  -5 -10    1.33    2.65
  -2   5  10   -0.98    3.27
   1  -5 -10   11.36    2.76
  -1   5  10    8.42    3.59
   0   5  10   -0.45    3.15
   0  -5 -10    2.39    2.23
  -1  -5 -10   70.25    5.06
   1   5  10   73.57    5.96
   2   5  10   12.89    3.30
  -2  -5 -10    9.46    2.04
   3   5  10    0.69    3.21
   3   5  10    0.73    2.29
   4   5  10    1.22    2.96
   4   5  10    3.95    2.70
   5   5  10   82.59    6.49
   5   5  10   73.11    6.53
   6   5  10    4.84    3.60
   6   5  10    3.70    3.88
   7   5  10    1.25    4.41
   8   5  10    5.97    5.25
   5  -6 -10    7.44    4.03
   4  -6 -10   14.13    3.70
   3  -6 -10   77.28    6.12
  -3   6  10   83.03    7.09
   2  -6 -10    3.01    2.86
  -2   6  10    1.92    3.65
  -1   6  10   67.17    6.33
   1  -6 -10   69.74    5.47
   0  -6 -10   34.27    3.63
   0   6  10   37.87    4.77
   1   6  10    9.12    3.76
  -1  -6 -10    9.93    2.47
   2   6  10    6.77    3.34
   3   6  10   67.99    6.05
   4   6  10   -2.14    3.41
   5   6  10    5.06    3.31
   5   6  10    4.52    3.76
   6   6  10    5.35    4.16
   6   6  10    8.15    4.02
   7   6  10   19.46    5.70
   7   6  10   30.20    5.41
   4  -7 -10   -4.02    4.74
   3  -7 -10   -1.76    3.13
  -2   7  10   -1.94    3.98
   2  -7 -10    3.32    3.08
   1  -7 -10  105.64    7.47
  -1   7  10  122.89    8.75
   0  -7 -10   19.76    3.23
   0   7  10   24.51    4.33
   1   7  10   85.16    7.18
   2   7  10   12.93    4.37
   3   7  10   23.20    4.37
   4   7  10    7.40    4.08
   5   7  10   21.28    4.61
   6   7  10   19.57    5.13
   7   7  10    4.52    4.48
   7   7  10   -2.77    5.18
   3  -8 -10   15.70    4.06
  -2   8  10    7.75    4.77
   2  -8 -10    4.85    3.66
  -1   8  10   19.48    4.86
   1  -8 -10   13.80    4.39
   0   8  10    2.61    4.38
   1   8  10   27.21    5.14
   2   8  10    5.11    4.72
   2   8  10    5.13    4.72
   4   8  10   11.43    5.02
   5   8  10   24.74    5.35
   6   8  10    7.28    5.19
   2  -9 -10    3.24    3.78
  -1   9  10   39.06    6.19
   0   9  10    2.12    4.92
   1   9  10   72.36    7.33
   2   9  10    0.48    5.11
   3   9  10    3.81    5.43
   4   9  10    1.13    5.25
   4   6 -11   -7.21    5.64
   3   6 -11   83.71   10.42
   2   6 -11    5.56    7.39
   1   6 -11  111.08   12.25
   1   6 -11  146.77   10.51
   0   6 -11    1.40    4.19
  -1   6 -11   75.87    7.11
  -2   6 -11   10.78    4.32
  -3   6 -11   11.88    4.31
   5   5 -11    3.15    5.14
   4   5 -11   17.87    5.63
   3   5 -11    2.83    5.54
   2   5 -11   33.59    7.17
   2   5 -11   48.73    5.70
   1   5 -11   17.93    6.76
   1   5 -11   23.11    4.86
   0   5 -11  119.00    9.15
  -1   5 -11   33.53    4.99
  -2   5 -11   22.18    4.53
  -3   5 -11   51.86    5.53
  -4   5 -11   18.80    4.53
   6   4 -11    0.48    4.99
   5   4 -11  234.61   15.89
   4   4 -11    5.64    4.75
   3   4 -11  271.95   18.36
   3   4 -11  305.21   16.30
   2   4 -11   12.04    3.86
   2   4 -11   11.81    5.04
   1   4 -11  390.41   21.10
   0   4 -11   38.20    5.15
  -1   4 -11   42.43    4.85
  -2   4 -11  156.62    9.87
  -3   4 -11    6.95    3.64
  -4   4 -11   28.28    4.54
  -5   4 -11    0.72    3.85
   6   3 -11   31.30    6.05
   5   3 -11    1.11    4.13
   4   3 -11    2.18    2.99
   4   3 -11    0.73    3.68
   3   3 -11   42.04    5.60
   3   3 -11   50.20    5.09
   2   3 -11  154.10   11.43
   2   3 -11  160.92    9.90
   1   3 -11  234.65   13.56
   0   3 -11  238.00   13.98
  -1   3 -11  652.43   33.13
  -2   3 -11   90.54    6.89
  -3   3 -11  233.78   13.37
  -4   3 -11    4.45    3.33
  -5   3 -11  140.99    9.35
  -6   3 -11    1.03    4.06
   5   2 -11  282.58   15.83
   5   2 -11  296.03   18.06
   4   2 -11  224.57   14.25
   4   2 -11  221.70   12.76
   3   2 -11  369.78   22.26
   3   2 -11  392.34   20.08
   2   2 -11  121.36    7.88
   2   2 -11   93.71    8.52
   1   2 -11  143.15    9.04
   0   2 -11  311.77   16.97
  -1   2 -11   60.68    5.50
  -2   2 -11  436.13   22.73
  -3   2 -11    7.22    3.27
  -4   2 -11  167.49   10.18
  -5   2 -11    9.93    3.61
  -6   2 -11   55.05    5.55
  -7   2 -11    9.76    4.18
   7  -2  11   10.07    6.94
   6   1 -11   14.66    3.65
   5   1 -11   54.01    5.11
   4   1 -11   27.63    3.95
   4   1 -11   27.73    4.32
   3   1 -11  224.09   13.76
   3   1 -11  223.23   12.71
   2   1 -11  156.73    9.20
   2   1 -11  138.45    9.57
   1   1 -11 1320.29   64.66
   0   1 -11  263.88   14.58
  -1   1 -11 1519.22   74.28
  -2   1 -11   -2.32    2.66
  -3   1 -11  279.03   15.30
  -4   1 -11   26.62    4.05
  -5   1 -11  108.53    7.69
   5  -1  11  117.61    9.74
   6  -1  11   49.13    6.93
  -6   1 -11   37.99    4.79
   7  -1  11    6.51    5.97
  -7   1 -11    5.11    3.81
   7   0 -11   37.89    4.96
   6   0 -11   34.76    4.56
   5   0 -11  170.56   10.55
   4   0 -11  163.17   10.03
   3   0 -11   92.16    6.94
   3   0 -11   99.04    7.13
   2   0 -11  106.69    7.29
   2   0 -11  103.66    7.32
   1   0 -11    0.68    2.10
   1   0 -11    4.66    2.91
   0   0 -11  524.31   26.75
  -1   0 -11   12.83    3.19
  -2   0 -11  954.53   47.38
  -3   0 -11  296.55   16.04
  -4   0 -11  321.39   16.93
   4   0  11  310.72   19.05
   5   0  11  109.08    8.93
  -5   0 -11  106.87    7.40
  -6   0 -11   72.14    5.93
   6   0  11   65.46    7.43
   7   0  11   42.17    6.82
  -7   0 -11   52.43    5.33
   8   0  11    1.28    6.00
   7  -1 -11    6.26    3.78
   6  -1 -11   37.17    4.74
   5  -1 -11  118.20    8.23
   4  -1 -11    9.39    3.11
   3  -1 -11  342.83   18.29
   2  -1 -11    0.84    2.63
   1  -1 -11  845.21   40.54
   1  -1 -11  789.98   44.20
   0  -1 -11    3.36    2.88
  -1  -1 -11  663.02   33.01
   1   1  11  649.33   34.78
   2   1  11  397.95   22.29
  -2  -1 -11  411.31   21.29
   3   1  11   77.39    6.57
   3   1  11   87.38    6.99
  -3  -1 -11   95.46    6.67
  -4  -1 -11  131.98    8.71
   4   1  11  143.08    9.31
   4   1  11  129.24    9.44
   5   1  11   37.32    5.15
  -5  -1 -11   40.58    4.34
   6   1  11  141.76   10.63
  -6  -1 -11  140.68    8.96
   7   1  11    6.29    4.80
   8   1  11   38.89    7.05
   7  -2 -11   14.22    4.25
   6  -2 -11    2.86    3.44
   5  -2 -11   25.08    3.96
   4  -2 -11   47.45    4.73
   3  -2 -11   23.41    3.58
   2  -2 -11  246.95   13.80
  -1   2  11  140.81    9.76
   1  -2 -11  141.04    8.91
   0   2  11  658.61   33.96
   0  -2 -11  616.47   31.92
  -1  -2 -11  474.08   24.01
   1   2  11  457.91   25.19
  -2  -2 -11 1036.50   51.22
   2   2  11 1026.59   56.44
   2   2  11 1057.20   53.79
   3   2  11  618.26   32.78
   3   2  11  594.60   34.34
  -3  -2 -11  655.51   31.48
  -4  -2 -11  165.96   10.00
   4   2  11  168.40   10.20
   4   2  11  151.66   10.39
   5   2  11  130.36    9.14
  -5  -2 -11  124.82    8.48
   5   2  11  131.38    8.66
   6   2  11   33.51    5.27
   7   2  11   24.37    5.59
   8   2  11    2.13    5.43
   7  -3 -11   31.85    4.94
   6  -3 -11    6.12    3.63
   5  -3 -11  113.99    8.33
   4  -3 -11    1.92    3.05
   3  -3 -11  190.91   11.27
  -2   3  11    5.24    3.50
   2  -3 -11    1.23    2.72
  -1   3  11  147.80   10.03
   1  -3 -11  143.73    9.04
   0   3  11   28.58    4.07
   0  -3 -11   22.02    3.41
  -1  -3 -11  103.96    6.96
   1   3  11   98.73    7.26
  -2  -3 -11  344.58   18.84
   2   3  11  366.32   20.15
   2   3  11  365.17   19.87
  -3  -3 -11   22.45    3.52
   3   3  11   23.70    3.93
   3   3  11   22.06    3.09
   4   3  11   86.65    6.59
   4   3  11   90.08    6.59
  -4  -3 -11   67.82    5.72
   5   3  11   -0.64    3.17
   5   3  11    0.41    3.32
   6   3  11   96.13    8.11
   7   3  11   10.89    4.56
   8   3  11   22.92    6.04
   6  -4 -11    9.06    3.93
   5  -4 -11    1.39    3.59
   4  -4 -11   60.94    5.68
   3  -4 -11   79.71    6.15
  -3   4  11   73.44    6.84
   2  -4 -11  138.00    8.96
  -2   4  11  148.89    9.83
  -1   4  11  236.66   14.29
   1  -4 -11  250.32   13.45
   0   4  11  231.33   13.61
   0  -4 -11  224.02   12.54
  -1  -4 -11  202.49   11.30
   1   4  11  200.17   12.25
   2   4  11  153.84   10.02
  -2  -4 -11  153.11    9.02
   3   4  11  253.82   14.69
   3   4  11  251.94   14.65
   4   4  11    7.06    3.00
   4   4  11    1.59    2.97
   5   4  11   38.09    4.73
   5   4  11   40.50    4.87
   6   4  11    4.28    3.57
   6   4  11   -0.97    3.73
   7   4  11   23.41    5.24
   8   4  11   -0.49    5.06
   6  -5 -11    1.11    4.07
   5  -5 -11   33.87    4.79
   4  -5 -11    2.91    3.27
   3  -5 -11   18.70    3.68
  -3   5  11   14.06    4.54
  -2   5  11    1.18    3.81
   2  -5 -11    3.30    2.90
  -1   5  11    6.58    3.69
   1  -5 -11    1.69    2.53
   0   5  11   16.87    4.07
   0  -5 -11   16.16    3.04
  -1  -5 -11   41.85    3.93
   1   5  11   48.91    5.21
   2   5  11  178.95   10.48
  -2  -5 -11  153.01    9.28
   3   5  11  144.25    9.36
   4   5  11    2.37    2.94
   4   5  11    0.26    3.19
   5   5  11   10.83    3.95
   5   5  11   15.58    3.73
   6   5  11   33.30    4.86
   6   5  11   28.50    4.92
   7   5  11    2.59    4.52
   8   5  11   12.10    5.45
   5  -6 -11   12.11    4.12
   4  -6 -11   10.32    3.93
  -3   6  11   60.74    6.55
   3  -6 -11   52.92    5.24
  -2   6  11   30.66    4.96
   2  -6 -11   19.69    3.59
  -1   6  11   60.02    6.08
   1  -6 -11   52.52    4.88
   0  -6 -11    7.88    2.69
   0   6  11    2.37    3.83
  -1  -6 -11   35.50    3.69
   1   6  11   36.60    4.75
   2   6  11    4.75    3.83
   3   6  11   27.24    4.62
   4   6  11   44.83    5.10
   5   6  11   16.23    4.39
   6   6  11    2.23    3.85
   6   6  11    4.04    4.16
   7   6  11   -4.15    4.06
   7   6  11    0.94    4.50
   4  -7 -11    7.97    4.00
   3  -7 -11    3.12    3.54
  -2   7  11    7.99    4.59
   2  -7 -11    7.83    3.50
   1  -7 -11  105.11    6.97
  -1   7  11   78.85    7.73
   0   7  11   25.96    5.02
   0  -7 -11   26.24    3.63
   1   7  11   17.40    4.55
   2   7  11   15.70    4.61
   3   7  11   30.96    5.08
   4   7  11    3.27    3.81
   5   7  11   16.99    5.64
   6   7  11   -0.29    4.66
   3  -8 -11    4.96    4.01
  -2   8  11    4.24    4.89
   2  -8 -11    3.10    3.70
   2  -8 -11    3.04    3.70
   1  -8 -11    8.13    3.58
  -1   8  11   23.87    5.43
   0   8  11   -0.03    4.46
   1   8  11   15.56    4.97
   2   8  11   14.01    5.00
   3   8  11   -3.78    4.12
   4   8  11   17.50    5.47
   4   8  11   17.72    5.46
   5   8  11   10.55    4.79
   6   8  11    7.73    4.88
  -1   9  11   15.76    5.58
   0   9  11    1.54    4.78
   1   9  11   -2.36    5.19
   2   9  11    7.32    5.13
   3   9  11    0.77    6.62
   4   9  11    9.14    5.21
   2   6 -12   -7.27    6.91
   1   6 -12    7.47    5.11
   1   6 -12   12.98    7.31
   0   6 -12    2.03    4.94
  -1   6 -12   -2.89    4.37
  -2   6 -12    0.26    4.47
   4   5 -12   -2.85    5.33
   3   5 -12   17.54    6.68
   2   5 -12    4.60    6.84
   2   5 -12    3.34    4.18
   1   5 -12   80.72    7.57
   1   5 -12   90.14    9.99
   0   5 -12   13.86    4.94
  -1   5 -12    2.34    4.15
  -2   5 -12    2.78    4.19
  -3   5 -12    7.32    4.32
  -4   5 -12   11.28    4.49
   5   4 -12    0.36    4.96
   4   4 -12    6.11    4.86
   3   4 -12   13.43    4.23
   3   4 -12   17.49    5.42
   2   4 -12    8.29    5.51
   2   4 -12   11.30    3.90
   1   4 -12    7.55    3.96
   1   4 -12    6.93    5.69
   0   4 -12   44.28    5.82
  -1   4 -12  191.22   12.12
  -2   4 -12   26.06    4.55
  -3   4 -12   60.86    6.01
  -4   4 -12    2.11    3.90
  -5   4 -12   40.51    5.47
   5   3 -12   -2.93    4.21
   4   3 -12   -2.45    3.21
   4   3 -12   -4.29    3.75
   3   3 -12  153.66    9.58
   3   3 -12  125.40   10.42
   2   3 -12   -1.38    3.32
   2   3 -12    0.89    4.20
   1   3 -12  158.02   10.34
   0   3 -12   61.81    5.98
  -1   3 -12   15.56    4.04
  -2   3 -12    7.47    3.71
  -3   3 -12    0.90    3.33
  -4   3 -12  101.02    7.94
  -5   3 -12    9.26    4.21
  -6   3 -12   16.18    4.68
   5   2 -12    2.02    4.35
   5   2 -12    3.79    3.33
   4   2 -12   21.13    3.83
   4   2 -12   17.10    4.29
   3   2 -12    2.36    3.11
   3   2 -12    1.97    3.39
   2   2 -12   49.04    5.17
   2   2 -12   58.67    6.11
   1   2 -12  250.68   14.28
   0   2 -12  187.59   11.34
  -1   2 -12  626.12   32.13
  -2   2 -12   20.14    4.14
  -3   2 -12  193.53   11.58
  -4   2 -12   -1.31    3.41
  -5   2 -12   71.81    6.33
  -6   2 -12   17.97    4.60
   6   1 -12   -2.62    3.26
   5   1 -12  116.14    8.28
   4   1 -12    5.80    3.27
   3   1 -12  265.12   14.64
   3   1 -12  261.19   15.87
   2   1 -12    4.38    2.94
   2   1 -12   14.78    3.62
   1   1 -12  339.77   18.41
   0   1 -12   70.33    5.91
  -1   1 -12   13.78    3.71
  -2   1 -12   36.67    4.79
  -3   1 -12   53.86    5.42
  -4   1 -12  197.37   11.90
  -5   1 -12   78.17    6.64
   6  -1  12   35.07    6.77
  -6   1 -12   30.68    4.92
   7  -1  12   44.44    7.48
  -7   1 -12   38.88    5.30
   7   0 -12    3.46    3.85
   6   0 -12   31.67    4.71
   5   0 -12   -0.16    3.26
   4   0 -12   71.11    6.03
   3   0 -12   48.03    5.06
   2   0 -12   94.15    6.81
   2   0 -12   88.49    6.77
   1   0 -12  539.27   31.66
   1   0 -12  611.88   29.33
   0   0 -12  119.51    8.11
  -1   0 -12 1154.93   56.94
  -2   0 -12   20.13    3.88
  -3   0 -12  446.38   23.52
  -4   0 -12   25.03    4.17
   4   0  12   23.52    4.78
  -5   0 -12   69.42    6.35
   5   0  12   83.67    7.63
  -6   0 -12  117.36    8.53
   6   0  12  119.26   10.17
   7   0  12   15.30    6.16
  -7   0 -12   13.30    4.11
   7  -1 -12   50.25    5.67
   6  -1 -12    1.82    3.35
   5  -1 -12  127.36    8.87
   4  -1 -12    9.02    3.52
   3  -1 -12  110.47    7.98
   2  -1 -12  141.29    9.30
   1  -1 -12   83.24    6.44
   0  -1 -12  217.49   12.75
  -1  -1 -12  277.61   15.33
   2   1  12  189.85   11.86
  -2  -1 -12  192.91   11.55
   3   1  12   42.73    4.98
  -3  -1 -12   43.07    4.94
   3   1  12   33.52    4.54
   4   1  12  237.79   15.50
   4   1  12  259.65   14.94
  -4  -1 -12  264.66   14.45
  -5  -1 -12  165.82   10.28
   5   1  12  156.30   11.36
  -6  -1 -12   65.36    5.83
   6   1  12   62.41    7.12
   7   1  12   29.45    5.96
   8   1  12   -4.17    5.66
   6  -2 -12   29.77    4.94
   5  -2 -12   44.96    5.25
   4  -2 -12   76.48    6.22
   3  -2 -12  353.72   18.94
   2  -2 -12  122.49    8.27
   1  -2 -12  623.01   31.57
   0   2  12    4.49    3.73
   0  -2 -12    1.27    2.63
  -1  -2 -12 1373.67   65.46
   1   2  12 1294.47   68.77
   2   2  12   87.71    7.07
  -2  -2 -12   80.45    6.45
   3   2  12  120.59    8.74
   3   2  12  114.46    8.28
  -3  -2 -12  131.16    8.45
   4   2  12  184.63   12.32
  -4  -2 -12  200.69   11.76
   4   2  12  203.90   12.19
  -5  -2 -12   31.66    4.69
   5   2  12   41.06    5.12
   5   2  12   37.54    5.03
   6   2  12  117.97    9.48
   7   2  12    0.22    4.73
   8   2  12   34.49    6.99
   6  -3 -12    3.93    3.75
   5  -3 -12    3.94    3.73
   4  -3 -12  114.89    8.35
   3  -3 -12    8.45    3.47
   2  -3 -12  200.58   11.80
  -2   3  12  204.41   12.80
  -1   3  12   37.91    5.18
   0   3  12  616.80   32.27
   0  -3 -12  583.25   30.32
  -1  -3 -12   95.53    6.95
   1   3  12   90.10    7.54
   2   3  12  191.37   12.15
  -2  -3 -12  207.62   11.66
   2   3  12  193.60   11.66
  -3  -3 -12   80.71    6.28
   3   3  12   81.60    5.96
   3   3  12   68.44    6.18
   4   3  12  281.62   16.51
  -4  -3 -12  308.24   16.04
   4   3  12  287.59   17.18
   5   3  12  119.68    9.49
   5   3  12  152.28    9.37
   6   3  12    6.30    4.18
   7   3  12   43.27    6.03
   8   3  12    9.57    5.81
   6  -4 -12   10.12    4.28
   5  -4 -12  151.75    9.99
   4  -4 -12   86.85    6.83
   3  -4 -12  187.51   11.44
  -2   4  12    5.53    4.02
   2  -4 -12    5.73    3.10
   1  -4 -12  278.02   15.23
  -1   4  12  281.63   16.46
   0  -4 -12   14.46    3.16
   0   4  12   12.03    4.01
   1   4  12  122.02    8.78
  -1  -4 -12  134.43    8.42
   2   4  12  195.08   11.88
  -2  -4 -12  192.39   11.17
  -3  -4 -12    1.16    2.51
   3   4  12    1.61    3.53
   4   4  12  171.07   10.77
   4   4  12  169.71   10.84
   5   4  12    1.53    3.43
   5   4  12    1.31    3.70
   6   4  12  119.49    9.43
   6   4  12  130.09    9.10
   7   4  12    5.55    4.69
   8   4  12   29.58    6.33
   5  -5 -12    0.85    3.88
   4  -5 -12   33.87    4.83
   3  -5 -12   42.53    4.90
  -3   5  12   52.07    6.39
  -2   5  12  158.38   11.11
   2  -5 -12  158.17    9.94
   1  -5 -12   57.97    5.15
  -1   5  12   52.81    6.08
   0   5  12  308.57   17.33
   0  -5 -12  285.90   15.95
  -1  -5 -12  270.15   14.71
   1   5  12  276.44   16.09
   2   5  12   84.64    7.06
  -2  -5 -12   93.39    6.37
   3   5  12  121.00    8.81
   4   5  12   39.02    4.80
   5   5  12  111.33    8.59
   5   5  12  117.17    8.47
   6   5  12   10.00    4.26
   6   5  12    3.33    3.95
   7   5  12   14.18    4.98
   5  -6 -12   31.75    5.27
   4  -6 -12    5.13    3.90
  -3   6  12   23.88    5.44
   3  -6 -12   14.65    3.94
   2  -6 -12    7.10    3.45
  -2   6  12   11.68    4.47
   1  -6 -12    6.36    3.21
  -1   6  12   13.29    4.55
   0  -6 -12   53.22    4.85
   0   6  12   46.83    5.88
  -1  -6 -12    3.30    2.68
   1   6  12    9.41    4.26
   2   6  12  144.54   10.12
   3   6  12   -0.68    3.56
   4   6  12  119.68    9.00
   5   6  12    0.49    4.13
   6   6  12   42.09    5.83
   7   6  12    3.94    4.44
   4  -7 -12   11.98    4.23
   3  -7 -12   57.29    5.77
  -2   7  12   50.19    6.41
   2  -7 -12   38.32    4.99
   1  -7 -12   80.61    6.47
  -1   7  12   86.14    7.73
   0  -7 -12   72.24    5.53
   0   7  12   55.30    6.74
   1   7  12  122.07    9.51
   2   7  12    5.30    4.12
   3   7  12   23.55    5.06
   4   7  12   -3.83    4.30
   5   7  12    7.24    4.35
   6   7  12   18.52    5.25
  -2   8  12   15.53    5.47
   2  -8 -12   12.45    4.09
   1  -8 -12   -1.87    3.24
  -1   8  12   -0.43    4.86
   0   8  12   23.34    5.56
   1   8  12   -1.79    4.42
   2   8  12   72.77    7.63
   3   8  12   -2.25    4.42
   4   8  12   17.89    5.49
   5   8  12    3.95    4.88
   0   9  12   -1.69    4.94
   1   9  12    9.42    5.61
   2   9  12   15.16    5.99
   3   9  12    6.92    5.43
   3   5 -13   -7.91    5.45
   2   5 -13   13.00    7.48
   2   5 -13   22.96    5.40
   1   5 -13   11.14    4.81
   1   5 -13   12.42    6.68
   0   5 -13   90.37    8.39
  -1   5 -13    3.88    4.76
  -2   5 -13   11.27    4.80
  -3   5 -13    4.20    4.32
   4   4 -13    7.59    5.19
   3   4 -13    1.70    5.29
   3   4 -13   -5.23    3.80
   2   4 -13   13.73    6.58
   2   4 -13   20.60    4.80
   1   4 -13   11.57    6.08
   1   4 -13   20.97    4.79
   0   4 -13   47.48    6.10
  -1   4 -13   -0.04    3.90
  -2   4 -13    2.80    3.88
  -3   4 -13    2.05    4.06
  -4   4 -13   10.43    4.57
   5   3 -13    3.69    4.86
   4   3 -13    7.97    4.63
   4   3 -13    9.24    3.99
   3   3 -13   -4.31    3.46
   3   3 -13   -1.05    4.12
   2   3 -13   19.84    5.70
   2   3 -13   26.02    4.75
   1   3 -13   10.57    4.02
   1   3 -13   11.18    5.27
   0   3 -13   48.49    5.75
  -1   3 -13   16.68    4.51
  -2   3 -13   -0.19    3.82
  -3   3 -13   22.93    4.62
  -4   3 -13    1.37    4.00
  -5   3 -13    3.99    4.23
   5   2 -13    2.69    3.64
   4   2 -13   -5.77    3.34
   3   2 -13   22.79    4.25
   3   2 -13   21.98    4.56
   2   2 -13    1.25    3.25
   2   2 -13    3.02    3.91
   1   2 -13   34.47    4.82
   1   2 -13   43.85    5.86
   0   2 -13    2.02    3.26
  -1   2 -13   10.69    4.06
  -2   2 -13    5.00    3.80
  -3   2 -13   16.04    4.09
  -4   2 -13    6.75    3.95
  -5   2 -13   34.47    5.41
  -6   2 -13    7.95    4.25
   6   1 -13    3.46    3.81
   5   1 -13   -2.81    3.38
   4   1 -13    7.83    3.64
   3   1 -13   -1.46    3.23
   2   1 -13    3.37    3.45
   2   1 -13    4.90    3.46
   1   1 -13   33.97    4.45
   1   1 -13   23.38    4.22
   0   1 -13    1.45    3.23
  -1   1 -13   16.88    3.95
  -2   1 -13   27.53    4.82
  -3   1 -13  161.28   10.70
  -4   1 -13   -2.37    3.48
  -5   1 -13    7.77    4.15
  -6   1 -13   21.05    4.80
  -7   1 -13    4.64    4.19
   7  -1  13   -0.44    6.27
   6   0 -13   -1.22    3.48
   5   0 -13   13.59    4.05
   4   0 -13    1.73    3.37
   3   0 -13    5.73    3.51
   2   0 -13    5.54    3.22
   1   0 -13   15.86    3.09
   1   0 -13   14.86    3.78
   0   0 -13    3.21    3.39
  -1   0 -13   11.77    3.65
  -2   0 -13    6.48    3.50
  -3   0 -13   11.16    3.93
  -4   0 -13   33.25    4.82
  -5   0 -13   99.23    7.71
   5   0  13   92.33    8.44
  -6   0 -13   40.34    5.31
   6   0  13   49.15    7.13
  -7   0 -13   26.92    4.95
   7   0  13   20.49    6.67
   6  -1 -13   12.97    4.33
   5  -1 -13    1.01    3.42
   4  -1 -13    3.18    3.52
   3  -1 -13   68.97    6.27
   2  -1 -13   50.21    5.16
   1  -1 -13  199.36   11.85
   0  -1 -13   -1.39    2.94
  -1  -1 -13  333.05   18.26
  -2  -1 -13   44.10    5.05
  -3  -1 -13  209.68   12.50
  -4  -1 -13   31.12    4.88
   4   1  13   29.37    4.77
   5   1  13   20.11    4.71
  -5  -1 -13   16.61    4.30
  -6  -1 -13    1.68    3.64
   6   1  13    0.11    4.44
   7   1  13    9.90    5.44
   6  -2 -13    3.24    3.93
   5  -2 -13    1.21    3.71
   4  -2 -13    7.04    3.53
   3  -2 -13   28.71    4.63
   2  -2 -13    9.82    3.78
   1  -2 -13   16.67    3.92
   0  -2 -13  220.93   13.15
   0   2  13  230.02   13.96
   1   2  13   25.47    4.94
  -1  -2 -13   24.41    4.29
  -2  -2 -13   77.55    6.30
   2   2  13   74.02    6.84
  -3  -2 -13   47.90    5.26
   3   2  13   67.38    6.32
   3   2  13   49.21    5.03
  -4  -2 -13  132.89    9.05
   4   2  13  124.67    9.24
   4   2  13  133.33    9.54
  -5  -2 -13   82.78    6.85
   5   2  13   81.18    7.19
   5   2  13   82.16    7.35
   6   2  13    5.08    4.48
   7   2  13   41.64    6.56
   6  -3 -13    2.74    4.19
   5  -3 -13   39.44    5.15
   4  -3 -13   16.63    4.31
   3  -3 -13   53.39    5.95
   2  -3 -13   48.67    5.20
   1  -3 -13  255.79   14.70
  -1   3  13  257.11   15.83
   0  -3 -13   13.22    3.58
   0   3  13   22.14    4.85
  -1  -3 -13   35.83    4.61
   1   3  13   37.66    5.10
   2   3  13   10.30    3.90
  -2  -3 -13   11.92    3.67
   3   3  13  165.98   10.89
   3   3  13  172.72   11.33
  -3  -3 -13  189.38   11.02
   4   3  13   43.81    4.95
  -4  -3 -13   50.94    5.15
   4   3  13   48.67    5.28
   5   3  13    1.98    3.85
   5   3  13    4.65    3.60
   6   3  13   61.45    6.70
   7   3  13    0.25    4.48
   5  -4 -13   24.68    4.95
   4  -4 -13   15.46    4.05
   3  -4 -13    3.96    3.51
  -2   4  13   53.58    6.54
   2  -4 -13   51.34    5.52
   1  -4 -13    5.59    3.14
  -1   4  13   -0.92    3.97
   0   4  13  232.44   13.81
   0  -4 -13  212.23   12.71
  -1  -4 -13   40.36    4.84
   1   4  13   56.59    5.90
  -2  -4 -13  164.91   10.25
   2   4  13  169.86   10.93
   3   4  13   83.67    6.92
  -3  -4 -13   66.37    5.89
   4   4  13   54.46    5.88
   5   4  13   85.35    7.66
   5   4  13   97.49    7.70
   6   4  13    5.45    4.09
   6   4  13    1.50    4.03
   7   4  13   31.93    5.78
   5  -5 -13    1.55    3.86
   4  -5 -13   22.07    4.59
  -3   5  13   33.75    5.94
   3  -5 -13   33.09    4.86
  -2   5  13   68.28    7.32
   2  -5 -13   65.87    5.93
   1  -5 -13   46.50    5.05
  -1   5  13   43.25    6.05
   0   5  13   16.47    4.75
   0  -5 -13   15.78    3.42
   1   5  13   19.07    4.54
  -1  -5 -13   25.10    3.90
  -2  -5 -13  103.21    7.25
   2   5  13  100.69    8.00
   3   5  13   62.38    6.48
   4   5  13  128.09    9.17
   5   5  13    1.56    4.26
   6   5  13   79.13    7.45
   7   5  13    0.67    4.65
   4  -6 -13    6.01    4.10
   3  -6 -13   18.46    4.34
  -3   6  13   18.88    5.72
   2  -6 -13   65.38    6.20
  -2   6  13   69.95    7.56
   1  -6 -13   31.41    4.41
  -1   6  13   33.98    5.75
   0  -6 -13  168.66   10.38
   0   6  13  169.55   11.71
   1   6  13   62.56    6.52
  -1  -6 -13   64.21    5.44
   2   6  13  131.19    9.50
   3   6  13   29.60    5.29
   4   6  13   17.34    4.56
   5   6  13   37.72    5.69
   6   6  13    4.56    4.58
   3  -7 -13   40.31    5.43
  -2   7  13   13.51    5.33
   2  -7 -13    8.42    3.86
   1  -7 -13    9.24    3.63
  -1   7  13   14.11    5.18
   0  -7 -13   50.60    5.02
   0   7  13   49.49    6.49
   1   7  13    0.49    4.69
   2   7  13   52.29    6.22
   3   7  13   -1.59    4.47
   4   7  13   75.64    7.21
   5   7  13    4.55    4.82
   6   7  13   29.20    5.80
   2  -8 -13   23.43    4.67
  -2   8  13   16.25    6.07
  -1   8  13    5.03    5.42
   1  -8 -13    8.20    3.91
   0   8  13   63.18    7.20
   1   8  13    7.28    5.25
   2   8  13    6.12    5.31
   3   8  13   17.37    5.21
   4   8  13    4.67    5.12
   5   8  13    1.33    5.17
   1   9  13   25.24    6.26
   2   9  13   27.94    6.56
   2   5 -14  109.62   11.79
   2   5 -14  102.51    9.12
   1   5 -14    0.84    4.70
   1   5 -14    3.97    6.41
   0   5 -14    4.09    5.06
  -1   5 -14    3.14    5.24
  -2   5 -14   30.22    6.02
   4   4 -14   -1.12    5.28
   3   4 -14   13.04    5.09
   3   4 -14   15.25    6.10
   2   4 -14   16.54    5.10
   2   4 -14   21.41    6.98
   1   4 -14   20.16    6.68
   1   4 -14   13.31    4.82
   0   4 -14  106.37    8.92
  -1   4 -14   10.25    4.83
  -2   4 -14   25.34    5.59
  -3   4 -14   14.50    4.89
  -4   4 -14   14.40    5.06
   4   3 -14  121.81    9.29
   3   3 -14    8.15    4.12
   3   3 -14    2.99    4.61
   2   3 -14  147.34   12.31
   2   3 -14  148.93   10.53
   1   3 -14   19.44    4.67
   1   3 -14   22.09    5.88
   0   3 -14   16.56    4.69
  -1   3 -14    2.82    4.20
  -2   3 -14    3.12    4.53
  -3   3 -14   61.14    6.81
  -4   3 -14    0.68    4.28
  -5   3 -14   28.03    5.50
   5   2 -14    6.26    4.16
   4   2 -14   24.77    4.72
   3   2 -14   -1.72    3.54
   2   2 -14   88.43    7.35
   2   2 -14   88.38    8.17
   1   2 -14   35.53    5.68
   1   2 -14   30.27    4.87
   0   2 -14  151.17   10.32
  -1   2 -14    8.62    4.27
  -2   2 -14   75.20    7.39
  -3   2 -14   14.35    4.73
  -4   2 -14   39.95    5.58
  -5   2 -14   -0.90    4.38
   5   1 -14    8.56    4.12
   4   1 -14   23.51    4.63
   3   1 -14   32.02    4.89
   2   1 -14   60.21    5.86
   1   1 -14  115.44    8.82
   1   1 -14  120.25    9.07
   0   1 -14    2.71    3.59
  -1   1 -14   88.71    7.20
  -2   1 -14    5.32    4.19
  -3   1 -14  145.92   10.56
  -4   1 -14    7.39    4.42
  -6   1 -14    3.93    4.30
   6   0 -14   23.39    4.91
   5   0 -14    0.20    3.55
   4   0 -14   83.15    7.02
   3   0 -14    4.82    3.85
   2   0 -14   99.97    7.57
   1   0 -14   55.74    5.84
   0   0 -14  144.70    9.66
  -1   0 -14   18.58    4.20
  -2   0 -14   28.09    4.60
  -3   0 -14   -0.33    3.92
  -4   0 -14   29.36    5.40
  -5   0 -14    2.37    4.35
  -6   0 -14    5.28    4.12
   6   0  14   -6.53    5.25
  -7   0 -14    4.75    4.29
   7   0  14   11.97    6.29
   6  -1 -14   -2.07    3.83
   5  -1 -14    9.22    4.12
   4  -1 -14    2.39    3.65
   3  -1 -14    9.05    4.08
   2  -1 -14   -4.69    3.26
   1  -1 -14  129.63    8.94
   0  -1 -14   15.11    3.95
  -1  -1 -14  110.85    8.52
  -2  -1 -14    3.95    3.57
  -3  -1 -14  190.07   12.00
  -4  -1 -14    9.75    4.24
   5   1  14   36.78    5.97
  -5  -1 -14   43.61    5.83
   6   1  14   22.72    5.76
  -6  -1 -14   24.70    5.06
   7   1  14    4.42    5.60
   6  -2 -14   37.53    5.79
   5  -2 -14    5.22    4.03
   4  -2 -14   56.49    6.26
   3  -2 -14    4.47    3.70
   2  -2 -14   20.14    4.34
   1  -2 -14   13.97    4.18
   0  -2 -14    2.03    3.55
  -1  -2 -14   11.33    3.84
   1   2  14    6.75    4.32
  -2  -2 -14    2.52    3.63
   2   2  14    3.36    4.36
  -3  -2 -14    0.23    3.24
   3   2  14    0.64    4.30
   4   2  14    1.10    4.17
   4   2  14    1.36    3.65
  -4  -2 -14    5.64    3.72
  -5  -2 -14    8.90    3.95
   5   2  14    9.58    4.32
   5   2  14    9.57    4.75
   6   2  14   13.57    5.08
   7   2  14   19.46    5.98
   5  -3 -14   11.08    4.56
   4  -3 -14   17.98    4.55
   3  -3 -14    7.71    3.88
   2  -3 -14   20.85    4.60
   1  -3 -14   76.54    6.82
  -1   3  14   70.83    7.12
   0   3  14  103.95    8.84
   0  -3 -14  102.67    7.89
   1   3  14  109.45    8.71
  -1  -3 -14  104.73    7.87
   2   3  14   -2.84    4.09
  -2  -3 -14    3.12    3.43
   3   3  14   36.71    5.61
  -3  -3 -14   36.68    4.94
  -4  -3 -14    3.82    3.59
   4   3  14    7.22    4.39
   5   3  14   43.15    5.43
   5   3  14   44.48    5.81
   6   3  14    7.29    4.47
   7   3  14    6.25    5.01
   5  -4 -14    5.10    4.50
   4  -4 -14    3.84    3.90
   3  -4 -14    0.08    3.54
   2  -4 -14   26.73    4.91
  -2   4  14   15.91    5.21
  -1   4  14   -4.27    4.26
   1  -4 -14   -1.23    3.63
   0   4  14    7.45    4.52
   0  -4 -14    6.48    3.55
   1   4  14    0.35    4.07
  -1  -4 -14    1.58    3.18
   2   4  14    0.08    3.92
  -2  -4 -14   -2.23    3.19
  -3  -4 -14   11.41    3.56
   3   4  14    6.02    4.04
   4   4  14   16.00    4.39
   5   4  14   -2.73    4.04
   6   4  14   10.85    4.77
   7   4  14    1.43    4.87
   4  -5 -14    3.62    4.03
   3  -5 -14   11.34    4.10
  -2   5  14   27.10    5.99
   2  -5 -14   20.10    4.63
  -1   5  14   43.93    6.12
   1  -5 -14   36.39    4.92
   0   5  14    6.03    4.41
   0  -5 -14   -2.10    3.30
  -1  -5 -14   19.74    4.05
   1   5  14   16.72    4.96
  -2  -5 -14   38.61    4.85
   2   5  14   38.54    5.72
   3   5  14    4.05    4.13
   4   5  14    3.21    4.39
   5   5  14   25.31    5.47
   6   5  14   -1.75    4.52
   4  -6 -14    8.42    4.58
  -3   6  14    4.44    5.43
   3  -6 -14   -2.35    3.95
   2  -6 -14   30.45    4.88
  -2   6  14   24.86    6.24
   1  -6 -14   -1.36    3.35
  -1   6  14    3.05    5.06
   0   6  14   15.68    5.05
   0  -6 -14   24.11    4.31
  -1  -6 -14    0.75    3.34
   1   6  14    0.69    4.61
   2   6  14    4.99    4.70
   3   6  14    4.57    4.41
   4   6  14    8.68    4.92
   5   6  14    6.91    4.84
   6   6  14   -2.17    4.70
   3  -7 -14    4.14    4.00
   2  -7 -14   -2.15    3.80
  -2   7  14    5.74    5.31
   1  -7 -14    8.42    3.80
  -1   7  14    9.41    5.47
   0   7  14   35.73    6.48
   0  -7 -14   44.23    5.25
   1   7  14    1.42    4.96
   2   7  14   22.29    5.47
   3   7  14    7.08    5.01
   4   7  14    1.13    4.55
   5   7  14    4.92    5.13
   1  -8 -14    3.40    3.86
  -1   8  14   -0.74    5.55
   0   8  14   27.78    6.00
   1   8  14   -0.25    5.16
   2   8  14    6.04    5.19
   3   8  14   -5.56    5.05
   4   8  14   13.24    5.35
   2   4 -15   87.18    8.41
   2   4 -15   90.14   10.25
   1   4 -15    4.30    4.76
   1   4 -15    3.53    6.34
   0   4 -15   62.41    7.27
  -1   4 -15    4.81    5.14
  -2   4 -15   17.06    5.91
   4   3 -15    2.08    4.36
   3   3 -15   37.22    5.57
   2   3 -15   75.57    8.40
   2   3 -15   61.01    6.86
   1   3 -15   44.92    6.17
   1   3 -15   53.04    7.53
   0   3 -15   96.78    8.11
  -1   3 -15   39.11    6.18
  -2   3 -15  233.01   14.80
  -3   3 -15   19.05    5.43
  -4   3 -15   57.47    7.03
   4   2 -15   35.60    5.64
   3   2 -15   15.89    4.63
   2   2 -15  151.62   10.60
   1   2 -15   40.69    6.00
   1   2 -15   34.03    5.40
   0   2 -15   38.52    5.49
  -1   2 -15   85.66    7.75
  -2   2 -15    8.10    4.59
  -3   2 -15   89.94    8.26
  -4   2 -15   11.22    5.21
  -5   2 -15   64.88    7.17
   5   1 -15    8.07    4.53
   4   1 -15   46.72    6.01
   3   1 -15   99.65    7.87
   2   1 -15  186.59   11.87
   1   1 -15   22.25    4.54
   0   1 -15  331.91   18.45
  -1   1 -15   42.66    5.59
  -2   1 -15  255.05   15.37
  -3   1 -15    4.15    4.67
  -4   1 -15  103.55    8.99
  -5   1 -15    2.42    4.65
  -6   1 -15   19.33    5.33
   5   0 -15    4.83    4.29
   4   0 -15   51.35    6.11
   3   0 -15   31.57    4.97
   2   0 -15   39.17    5.14
   1   0 -15  182.81   11.62
   0   0 -15    0.32    3.65
  -1   0 -15  184.05   11.59
  -2   0 -15   31.01    5.10
  -3   0 -15  136.21    9.84
  -4   0 -15   59.91    7.09
  -5   0 -15   52.54    6.58
  -6   0 -15   26.67    5.59
   5  -1 -15   54.35    6.45
   4  -1 -15   90.87    7.86
   3  -1 -15   48.83    6.02
   2  -1 -15  159.79   10.67
   1  -1 -15    2.98    3.88
   0  -1 -15  180.02   11.48
  -1  -1 -15    3.47    3.85
  -2  -1 -15  130.21    9.45
  -3  -1 -15   40.79    5.59
  -4  -1 -15  106.97    8.61
   5   1  15   71.33    7.95
  -5  -1 -15   91.56    7.86
  -6  -1 -15    7.40    4.79
   6   1  15    8.67    5.59
   5  -2 -15    4.18    4.25
   4  -2 -15   -0.60    4.15
   3  -2 -15   49.31    5.94
   2  -2 -15   33.52    5.48
   1  -2 -15  160.65   10.74
   0  -2 -15  123.29    8.95
  -1  -2 -15  163.49   11.02
   2   2  15  124.54   10.35
  -2  -2 -15  159.48   10.22
  -3  -2 -15   91.82    7.70
   3   2  15   97.84    8.39
   4   2  15   46.81    6.05
  -4  -2 -15   53.05    5.83
   4   2  15   56.42    6.55
   5   2  15   28.49    5.36
  -5  -2 -15   31.39    5.11
   6   2  15   22.10    5.59
   5  -3 -15   19.90    5.04
   4  -3 -15   87.00    7.64
   3  -3 -15    4.79    4.31
   2  -3 -15   88.88    7.57
   1  -3 -15   -1.35    3.69
   0  -3 -15   74.61    7.04
   0   3  15   76.48    7.87
  -1  -3 -15   36.15    5.00
   1   3  15   27.27    5.90
  -2  -3 -15   48.00    5.83
   2   3  15   53.89    6.77
  -3  -3 -15   93.34    7.57
   3   3  15   90.48    8.33
  -4  -3 -15   34.78    5.03
   4   3  15   31.95    5.53
   5   3  15  116.24    9.35
   6   3  15    6.26    4.73
   4  -4 -15   32.43    5.71
   3  -4 -15   40.80    5.85
   2  -4 -15   63.79    6.67
  -1   4  15   66.10    7.43
   1  -4 -15   66.43    6.76
   0  -4 -15   56.49    6.11
   0   4  15   65.84    7.53
  -1  -4 -15   64.75    6.59
   1   4  15   70.99    7.25
  -2  -4 -15   26.40    4.70
   2   4  15   30.13    5.73
  -3  -4 -15   29.40    4.60
   3   4  15   25.32    5.47
   4   4  15   13.67    4.67
   5   4  15    0.75    4.66
   4  -5 -15   43.88    6.09
   3  -5 -15    8.56    4.59
   2  -5 -15    6.17    4.30
  -2   5  15    5.50    5.57
   1  -5 -15    9.71    4.29
  -1   5  15    7.57    5.52
   0   5  15    2.69    4.97
   0  -5 -15   -5.17    3.55
   1   5  15   16.54    5.13
  -1  -5 -15   15.81    4.33
  -2  -5 -15    5.20    3.75
   2   5  15    2.50    4.40
   3   5  15   47.84    6.12
   4   5  15   -2.23    4.28
   5   5  15   37.12    5.73
   6   5  15    5.16    5.09
   3  -6 -15   12.87    4.84
  -3   6  15   13.43    5.90
   2  -6 -15   22.32    4.92
  -2   6  15   29.80    6.75
   1  -6 -15   12.39    4.52
  -1   6  15   18.00    6.02
   0   6  15   11.09    5.18
   0  -6 -15   11.22    4.11
   1   6  15    4.08    4.80
  -1  -6 -15    5.82    3.76
   2   6  15    9.46    4.80
   3   6  15    3.18    4.54
   4   6  15    1.17    4.80
   5   6  15   14.66    5.44
   6   6  15   12.30    5.07
   2  -7 -15   23.49    4.84
  -2   7  15   24.57    6.66
  -1   7  15    0.25    5.53
   1  -7 -15    4.81    3.88
   0  -7 -15   22.25    4.54
   0   7  15   22.54    6.31
   1   7  15   16.91    5.86
   2   7  15   -2.16    5.19
   3   7  15   14.15    5.62
   4   7  15    1.09    4.90
   5   7  15   27.80    6.20
   0   8  15   12.56    5.87
   1   8  15    6.01    5.47
   2   8  15    0.84    5.46
   3   8  15    2.08    5.22
   0   4 -16    9.13    5.42
   2   3 -16   13.23    5.18
   1   3 -16   -1.72    5.53
   1   3 -16   -0.43    4.65
   0   3 -16   19.47    5.32
  -1   3 -16   35.23    6.15
  -2   3 -16   12.58    5.78
  -3   3 -16   24.72    6.02
   3   2 -16   11.40    4.59
   2   2 -16   17.18    4.79
   1   2 -16    9.32    4.80
   0   2 -16   65.17    6.73
  -1   2 -16   17.65    5.21
  -2   2 -16   60.14    7.21
  -3   2 -16    4.55    5.17
  -4   2 -16   51.86    7.39
   4   1 -16   48.08    6.36
   3   1 -16    2.92    3.98
   2   1 -16   20.49    4.68
   1   1 -16   16.55    4.59
   0   1 -16   32.74    5.38
  -1   1 -16   47.43    5.94
  -2   1 -16    2.08    4.12
  -3   1 -16   70.67    7.72
  -4   1 -16   49.08    6.98
  -5   1 -16   19.15    5.97
   4   0 -16    1.60    4.21
   3   0 -16   16.17    4.94
   2   0 -16   47.56    5.83
   1   0 -16   58.01    6.35
   0   0 -16   98.17    8.05
  -1   0 -16   11.69    4.42
  -2   0 -16  106.09    8.61
  -3   0 -16   13.65    4.93
  -5   0 -16   21.33    5.77
   4  -1 -16    2.64    4.40
   3  -1 -16    4.13    4.31
   2  -1 -16    1.17    4.08
   1  -1 -16   35.98    5.48
   0  -1 -16    0.31    4.04
  -1  -1 -16  113.11    8.83
  -2  -1 -16   21.23    4.76
  -3  -1 -16  145.48   10.46
  -4  -1 -16   70.70    7.17
  -5  -1 -16   12.00    5.14
  -6  -1 -16   38.71    6.28
   4  -2 -16   37.56    6.03
   3  -2 -16   15.08    5.06
   2  -2 -16  153.95   11.10
   1  -2 -16   47.30    6.01
   0  -2 -16  127.42    9.68
  -1  -2 -16   18.72    4.78
  -2  -2 -16  165.98   11.40
  -3  -2 -16   29.48    5.17
  -4  -2 -16   28.98    5.07
  -5  -2 -16   58.36    6.48
   6   2  16    8.26    5.41
   4  -3 -16    6.10    4.90
   3  -3 -16    0.66    4.47
   2  -3 -16   -0.21    4.49
   1  -3 -16   73.55    7.46
   0  -3 -16   14.37    4.79
  -1  -3 -16  291.01   16.84
   1   3  16  285.26   17.87
  -2  -3 -16   17.23    4.53
   2   3  16   17.52    5.36
  -3  -3 -16  112.14    8.38
   3   3  16   93.69    9.09
   4   3  16   88.47    8.61
  -4  -3 -16   87.50    7.56
   5   3  16    4.42    5.30
   4  -4 -16   85.40    8.31
   3  -4 -16   23.64    5.28
   2  -4 -16   56.75    6.73
  -1   4  16    2.47    5.30
   1  -4 -16   -0.26    4.47
   0   4  16   57.80    7.54
   0  -4 -16   48.01    6.39
  -1  -4 -16   14.54    4.91
   1   4  16    9.32    5.20
  -2  -4 -16   14.20    4.51
   2   4  16   12.75    5.57
  -3  -4 -16   71.08    6.72
   3   4  16   71.97    7.77
   4   4  16    7.22    5.29
   5   4  16   55.03    7.08
   3  -5 -16    9.30    4.80
   2  -5 -16   -3.52    4.33
  -2   5  16    4.09    5.41
  -1   5  16  118.62   10.55
   1  -5 -16  112.26    9.45
   0   5  16   22.33    6.33
   0  -5 -16   17.14    5.05
   1   5  16   71.75    8.02
  -1  -5 -16   85.47    7.41
   2   5  16   41.24    6.72
  -2  -5 -16   49.33    5.86
   3   5  16   15.22    5.43
   5   5  16    7.44    4.90
  -2   6  16    8.83    6.33
   2  -6 -16    1.17    4.53
   1  -6 -16    2.93    4.43
  -1   6  16    5.90    5.80
   0  -6 -16    7.17    4.43
   0   6  16    5.73    5.82
   1   6  16   59.81    7.59
  -1  -6 -16   55.80    6.65
   2   6  16   -2.12    5.12
   3   6  16   76.16    8.09
   4   6  16   -0.65    5.23
   5   6  16   35.29    6.39
   1  -7 -16   29.26    5.47
  -1   7  16   33.24    7.57
   0   7  16   24.69    6.66
   0  -7 -16   20.06    4.78
   1   7  16   14.88    6.24
   2   7  16   19.37    5.94
   3   7  16    4.21    5.05
   4   7  16    8.30    5.64
   0   3 -17    5.43    5.05
  -1   3 -17   -3.21    4.58
   2   2 -17    0.50    4.62
   1   2 -17   -2.87    4.33
   0   2 -17    0.57    4.47
  -1   2 -17   -0.95    4.63
  -2   2 -17    2.08    4.73
  -3   2 -17   12.07    5.74
   3   1 -17   -3.47    4.30
   2   1 -17   11.33    4.54
   1   1 -17    2.74    4.70
   0   1 -17   22.79    5.59
  -1   1 -17    6.13    4.56
  -2   1 -17   18.36    5.26
  -3   1 -17   14.08    5.32
  -4   1 -17    4.51    5.47
   3   0 -17   -0.04    4.62
   2   0 -17    3.99    4.28
   1   0 -17   -0.14    4.16
   0   0 -17    8.91    4.65
  -1   0 -17   12.55    5.00
  -2   0 -17   25.27    5.46
  -3   0 -17   32.02    5.93
  -4   0 -17   25.22    6.06
  -5   0 -17    1.53    5.10
   4  -1 -17    4.45    4.72
   3  -1 -17   -3.31    4.55
   2  -1 -17   45.37    6.47
   1  -1 -17   -0.27    4.11
   0  -1 -17   31.11    5.48
  -1  -1 -17    1.69    4.48
  -2  -1 -17   26.87    5.51
  -3  -1 -17    5.46    4.30
  -4  -1 -17   -6.81    4.25
  -5  -1 -17   11.38    5.20
   4  -2 -17    0.26    4.77
   3  -2 -17   -0.95    4.63
   2  -2 -17    2.31    4.94
   1  -2 -17   -5.32    4.24
   0  -2 -17   27.58    5.47
  -1  -2 -17   98.51    8.35
  -2  -2 -17   18.77    4.95
  -3  -2 -17   28.83    5.62
  -4  -2 -17   42.19    5.92
  -5  -2 -17    8.90    4.59
   3  -3 -17   25.35    5.59
   2  -3 -17   26.32    5.92
   1  -3 -17   10.92    4.86
   0  -3 -17   44.29    6.39
  -1  -3 -17   26.62    5.33
   2   3  17    1.93    5.15
  -2  -3 -17    1.44    4.46
  -3  -3 -17    5.29    4.55
   3   3  17   11.77    5.78
  -4  -3 -17   10.98    4.61
   4   3  17    8.81    5.56
   5   3  17   15.55    5.96
   3  -4 -17    7.96    5.12
   2  -4 -17   -1.33    4.71
   1  -4 -17    5.78    4.72
   0  -4 -17   -1.84    4.67
   0   4  17    5.15    5.87
   1   4  17   22.42    6.11
  -1  -4 -17   12.28    4.91
   2   4  17   24.10    6.42
  -2  -4 -17   24.48    5.36
  -3  -4 -17   24.83    5.21
   3   4  17   35.41    6.64
   4   4  17   18.69    5.72
   5   4  17    2.04    5.47
   2  -5 -17   27.64    5.76
   1  -5 -17    8.60    4.85
  -1   5  17   18.23    6.44
   0   5  17    5.39    6.27
   0  -5 -17    8.29    5.21
   1   5  17    1.24    5.60
  -1  -5 -17   -1.03    4.46
  -2  -5 -17   -2.32    4.36
   2   5  17    1.80    5.51
   3   5  17   23.79    5.97
   4   5  17    2.40    5.39
   5   5  17   28.00    6.46
   1  -6 -17   21.44    5.55
  -1   6  17   14.38    6.68
   0   6  17   19.70    6.51
   0  -6 -17   13.96    5.19
   1   6  17   42.40    7.24
  -1  -6 -17   37.24    6.04
   2   6  17   18.87    6.12
   3   6  17   24.32    5.97
   4   6  17   13.97    5.60
   0  -7 -17   -4.38    4.34
   0   7  17   -0.26    6.29
   1   7  17    6.77    6.24
   2   7  17    3.15    5.47
   3   7  17    4.93    5.43
   0   2 -18   28.52    5.96
  -1   2 -18   43.87    6.72
   2   1 -18   14.24    4.98
   1   1 -18    3.55    5.09
   0   1 -18   28.59    5.92
  -1   1 -18    0.25    4.85
  -2   1 -18   45.32    6.70
  -3   1 -18    9.48    5.33
   2   0 -18    7.77    5.15
   1   0 -18   49.10    6.47
   0   0 -18   10.09    5.23
  -1   0 -18   35.29    6.02
  -2   0 -18    4.27    4.63
  -3   0 -18   16.88    5.39
  -4   0 -18    6.49    4.99
   3  -1 -18   -9.55    4.42
   2  -1 -18   19.34    5.71
   1  -1 -18    6.11    4.92
   0  -1 -18   54.57    6.56
  -1  -1 -18    5.37    5.03
  -2  -1 -18   26.06    5.76
  -3  -1 -18    3.19    4.74
  -4  -1 -18   17.30    5.49
   3  -2 -18    1.10    5.08
   2  -2 -18    1.62    4.99
   1  -2 -18    8.29    5.02
   0  -2 -18   17.23    5.24
  -1  -2 -18   -0.39    4.30
  -2  -2 -18   15.20    5.17
  -3  -2 -18   13.90    5.38
  -4  -2 -18    8.79    4.94
   3  -3 -18    1.15    5.10
   2  -3 -18    3.31    5.24
   1  -3 -18   11.51    5.30
   0  -3 -18    4.24    5.14
  -2  -3 -18   12.59    4.97
  -3  -3 -18    1.21    4.76
   3   3  18   10.59    5.49
   4   3  18    7.24    5.72
  -4  -3 -18    2.51    4.68
   2  -4 -18    5.90    5.15
   1  -4 -18   -5.80    4.69
   0  -4 -18   -5.82    4.94
  -1  -4 -18    1.23    4.93
   1   4  18    4.24    5.49
  -2  -4 -18   -4.70    4.51
   2   4  18   -2.12    5.81
   3   4  18    1.15    5.56
  -3  -4 -18   -0.87    4.35
   4   4  18    9.92    5.89
   1  -5 -18   -1.50    4.99
   0   5  18   12.28    6.86
   0  -5 -18   -1.76    4.69
   1   5  18    7.61    5.96
  -1  -5 -18   -2.70    4.77
   2   5  18    5.40    5.79
  -2  -5 -18    1.99    4.77
   3   5  18   15.17    6.13
   4   5  18    6.81    6.10
   0   6  18    7.50    6.75
   0  -6 -18    5.28    5.07
  -1  -6 -18   -5.05    4.51
   1   6  18    0.68    6.44
   2   6  18    7.69    6.21
   3   6  18    2.34    5.59
   1   0 -19    2.81    4.97
   0   0 -19   67.93    7.78
  -1   0 -19   -0.49    4.99
  -2   0 -19   48.76    6.88
   1  -1 -19   41.01    6.31
   0  -1 -19   13.01    4.97
  -1  -1 -19   11.68    5.49
  -2  -1 -19   -5.32    4.95
  -3  -1 -19   21.94    5.88
   2  -2 -19   18.28    5.94
   1  -2 -19    6.55    5.02
   0  -2 -19   43.32    6.78
  -1  -2 -19   10.93    5.11
  -2  -2 -19   39.91    6.60
  -3  -2 -19   13.42    5.30
   1  -3 -19   33.25    6.50
   0  -3 -19    6.62    5.57
  -1  -3 -19   13.34    5.63
  -2  -3 -19    9.10    4.86
  -3  -3 -19   15.44    5.43
   1  -4 -19   13.34    6.21
   0  -4 -19   42.20    7.20
  -1  -4 -19    7.55    5.45
   2   4  19   32.06    6.83
  -2  -4 -19   26.42    6.09
   3   4  19    5.41    6.34
  -3  -4 -19    9.97    5.14
   0   5  19   17.73    6.87
   0  -5 -19    8.69    5.53
  -1  -5 -19    0.71    5.47
   1   5  19    3.08    6.08
   2   5  19    1.46    6.43
  -2  -5 -19    4.05    5.35
   0   0   0    0.00    0.00
;
_shelx_hkl_checksum              98333
loop_
_space_group_symop_operation_xyz
'x, y, z'
'-x, -y, -z'
loop_
_atom_site_label
_atom_site_type_symbol
_atom_site_fract_x
_atom_site_fract_y
_atom_site_fract_z
_atom_site_U_iso_or_equiv
_atom_site_adp_type
_atom_site_occupancy
_atom_site_site_symmetry_order
_atom_site_calc_flag
_atom_site_refinement_flags_posn
_atom_site_refinement_flags_adp
_atom_site_refinement_flags_occupancy
_atom_site_disorder_assembly
_atom_site_disorder_group
Br1 Br -0.28526(7) 0.69476(6) 0.94958(3) 0.06198(19) Uani 1 1 d . . . . .
Br2 Br 0.72489(7) 0.73202(7) 0.68654(3) 0.06452(19) Uani 1 1 d . . . . .
S1 S 0.19380(15) 0.68900(13) 0.80588(7) 0.0508(3) Uani 1 1 d . . . . .
C1 C -0.2055(5) 0.9277(5) 0.9053(2) 0.0428(8) Uani 1 1 d . . . . .
C2 C -0.3432(6) 1.0735(5) 0.8915(3) 0.0503(10) Uani 1 1 d . . . . .
H2 H -0.470105 1.056329 0.902675 0.060 Uiso 1 1 calc R U . . .
C3 C -0.2923(7) 1.2448(6) 0.8610(3) 0.0575(11) Uani 1 1 d . . . . .
H3 H -0.384673 1.343727 0.850233 0.069 Uiso 1 1 calc R U . . .
C4 C -0.1029(7) 1.2695(6) 0.8463(3) 0.0559(11) Uani 1 1 d . . . . .
H4 H -0.067528 1.384980 0.826199 0.067 Uiso 1 1 calc R U . . .
C5 C 0.0329(6) 1.1217(6) 0.8618(3) 0.0503(10) Uani 1 1 d . . . . .
H5 H 0.159803 1.139402 0.852551 0.060 Uiso 1 1 calc R U . . .
C6 C -0.0148(5) 0.9465(5) 0.8909(2) 0.0404(8) Uani 1 1 d . . . . .
C7 C 0.1381(6) 0.7895(6) 0.9052(3) 0.0485(9) Uani 1 1 d . . . . .
H7A H 0.099003 0.697911 0.957681 0.058 Uiso 1 1 calc R U . . .
H7B H 0.251509 0.829467 0.919876 0.058 Uiso 1 1 calc R U . . .
C8 C 0.2951(7) 0.8737(5) 0.7258(3) 0.0599(12) Uani 1 1 d . . . . .
H8A H 0.204136 0.981259 0.718446 0.072 Uiso 1 1 calc R U . . .
H8B H 0.406137 0.898562 0.750423 0.072 Uiso 1 1 calc R U . . .
C9 C 0.3484(5) 0.8291(5) 0.6341(3) 0.0435(9) Uani 1 1 d . . . . .
C10 C 0.2055(6) 0.8515(5) 0.5728(3) 0.0541(10) Uani 1 1 d . . . . .
H10 H 0.082264 0.890909 0.591329 0.065 Uiso 1 1 calc R U . . .
C11 C 0.2421(6) 0.8176(5) 0.4879(3) 0.0536(10) Uani 1 1 d . . . . .
H11 H 0.144289 0.834683 0.449119 0.064 Uiso 1 1 calc R U . . .
C12 C 0.4262(5) 0.7569(5) 0.4575(3) 0.0433(8) Uani 1 1 d . . . . .
C13 C 0.4683(7) 0.7190(6) 0.3696(3) 0.0582(11) Uani 1 1 d . . . . .
H13 H 0.371381 0.734370 0.330439 0.070 Uiso 1 1 calc R U . . .
C14 C 0.6436(8) 0.6615(6) 0.3410(3) 0.0657(13) Uani 1 1 d . . . . .
H14 H 0.667161 0.636337 0.282819 0.079 Uiso 1 1 calc R U . . .
C15 C 0.7914(7) 0.6394(6) 0.3982(3) 0.0667(14) Uani 1 1 d . . . . .
H15 H 0.913557 0.601349 0.377540 0.080 Uiso 1 1 calc R U . . .
C16 C 0.7578(6) 0.6732(5) 0.4847(3) 0.0527(10) Uani 1 1 d . . . . .
H16 H 0.857257 0.656004 0.522605 0.063 Uiso 1 1 calc R U . . .
C17 C 0.5746(5) 0.7337(4) 0.5168(2) 0.0384(8) Uani 1 1 d . . . . .
C18 C 0.5271(5) 0.7692(5) 0.6050(2) 0.0397(8) Uani 1 1 d . . . . .
loop_
_atom_site_aniso_label
_atom_site_aniso_U_11
_atom_site_aniso_U_22
_atom_site_aniso_U_33
_atom_site_aniso_U_23
_atom_site_aniso_U_13
_atom_site_aniso_U_12
Br1 0.0642(3) 0.0516(3) 0.0702(3) -0.0144(2) 0.0088(2) -0.0155(2)
Br2 0.0636(3) 0.0801(4) 0.0467(3) -0.0025(2) -0.0148(2) -0.0104(2)
S1 0.0595(6) 0.0401(5) 0.0502(6) -0.0116(4) 0.0144(5) -0.0070(4)
C1 0.055(2) 0.046(2) 0.0308(18) -0.0131(16) -0.0009(16) -0.0084(17)
C2 0.049(2) 0.058(3) 0.046(2) -0.0204(19) -0.0023(17) 0.0011(19)
C3 0.070(3) 0.052(2) 0.049(2) -0.018(2) -0.009(2) 0.008(2)
C4 0.077(3) 0.044(2) 0.048(2) -0.0166(19) 0.003(2) -0.007(2)
C5 0.054(2) 0.060(3) 0.041(2) -0.0184(19) 0.0040(17) -0.0141(19)
C6 0.049(2) 0.046(2) 0.0280(17) -0.0133(15) -0.0017(15) -0.0035(16)
C7 0.046(2) 0.059(2) 0.039(2) -0.0118(18) -0.0009(16) -0.0015(18)
C8 0.078(3) 0.041(2) 0.060(3) -0.018(2) 0.028(2) -0.018(2)
C9 0.047(2) 0.0313(18) 0.049(2) -0.0065(16) 0.0084(16) -0.0058(15)
C10 0.041(2) 0.044(2) 0.072(3) -0.007(2) 0.0093(19) -0.0057(17)
C11 0.043(2) 0.048(2) 0.068(3) -0.004(2) -0.0112(19) -0.0076(18)
C12 0.054(2) 0.0336(18) 0.041(2) -0.0025(15) -0.0030(16) -0.0115(16)
C13 0.085(3) 0.051(2) 0.042(2) -0.0068(19) -0.006(2) -0.023(2)
C14 0.103(4) 0.050(2) 0.044(2) -0.015(2) 0.018(3) -0.020(3)
C15 0.076(3) 0.050(2) 0.062(3) -0.009(2) 0.031(3) 0.002(2)
C16 0.049(2) 0.049(2) 0.054(3) -0.0076(19) 0.0084(19) 0.0002(18)
C17 0.044(2) 0.0289(17) 0.0385(19) -0.0016(14) 0.0026(15) -0.0064(14)
C18 0.044(2) 0.0331(18) 0.0386(19) -0.0004(15) -0.0021(15) -0.0063(15)
loop_
_atom_type_symbol
_atom_type_description
_atom_type_scat_dispersion_real
_atom_type_scat_dispersion_imag
_atom_type_scat_source
C C 0.0033 0.0016 'International Tables Vol C Tables 4.2.6.8 and 6.1.1.4'
H H 0.0000 0.0000 'International Tables Vol C Tables 4.2.6.8 and 6.1.1.4'
S S 0.1246 0.1234 'International Tables Vol C Tables 4.2.6.8 and 6.1.1.4'
Br Br -0.2901 2.4595 'International Tables Vol C Tables 4.2.6.8 and 6.1.1.4'
loop_
_geom_angle_atom_site_label_1
_geom_angle_atom_site_label_2
_geom_angle_atom_site_label_3
_geom_angle
_geom_angle_site_symmetry_1
_geom_angle_site_symmetry_3
C8 S1 C7 99.49(19) . .
C2 C1 C6 122.3(4) . .
C2 C1 Br1 117.6(3) . .
C6 C1 Br1 120.1(3) . .
C3 C2 C1 119.7(4) . .
C3 C2 H2 120.2 . .
C1 C2 H2 120.2 . .
C2 C3 C4 119.8(4) . .
C2 C3 H3 120.1 . .
C4 C3 H3 120.1 . .
C5 C4 C3 119.6(4) . .
C5 C4 H4 120.2 . .
C3 C4 H4 120.2 . .
C4 C5 C6 121.8(4) . .
C4 C5 H5 119.1 . .
C6 C5 H5 119.1 . .
C1 C6 C5 116.8(4) . .
C1 C6 C7 123.3(4) . .
C5 C6 C7 119.9(4) . .
C6 C7 S1 113.7(3) . .
C6 C7 H7A 108.8 . .
S1 C7 H7A 108.8 . .
C6 C7 H7B 108.8 . .
S1 C7 H7B 108.8 . .
H7A C7 H7B 107.7 . .
C9 C8 S1 111.0(3) . .
C9 C8 H8A 109.4 . .
S1 C8 H8A 109.4 . .
C9 C8 H8B 109.4 . .
S1 C8 H8B 109.4 . .
H8A C8 H8B 108.0 . .
C18 C9 C10 117.4(4) . .
C18 C9 C8 124.5(4) . .
C10 C9 C8 118.1(4) . .
C11 C10 C9 122.0(4) . .
C11 C10 H10 119.0 . .
C9 C10 H10 119.0 . .
C10 C11 C12 120.8(4) . .
C10 C11 H11 119.6 . .
C12 C11 H11 119.6 . .
C11 C12 C13 122.0(4) . .
C11 C12 C17 119.1(4) . .
C13 C12 C17 118.8(4) . .
C14 C13 C12 121.8(4) . .
C14 C13 H13 119.1 . .
C12 C13 H13 119.1 . .
C13 C14 C15 120.0(4) . .
C13 C14 H14 120.0 . .
C15 C14 H14 120.0 . .
C16 C15 C14 120.5(4) . .
C16 C15 H15 119.7 . .
C14 C15 H15 119.7 . .
C15 C16 C17 120.7(4) . .
C15 C16 H16 119.6 . .
C17 C16 H16 119.6 . .
C16 C17 C18 124.5(4) . .
C16 C17 C12 118.1(4) . .
C18 C17 C12 117.4(3) . .
C9 C18 C17 123.3(3) . .
C9 C18 Br2 119.0(3) . .
C17 C18 Br2 117.7(3) . .
loop_
_geom_bond_atom_site_label_1
_geom_bond_atom_site_label_2
_geom_bond_distance
_geom_bond_site_symmetry_2
Br1 C1 1.903(4) .
Br2 C18 1.910(4) .
S1 C8 1.814(4) .
S1 C7 1.818(4) .
C1 C2 1.376(5) .
C1 C6 1.385(5) .
C2 C3 1.376(6) .
C2 H2 0.9300 .
C3 C4 1.385(6) .
C3 H3 0.9300 .
C4 C5 1.379(6) .
C4 H4 0.9300 .
C5 C6 1.394(6) .
C5 H5 0.9300 .
C6 C7 1.502(5) .
C7 H7A 0.9700 .
C7 H7B 0.9700 .
C8 C9 1.492(5) .
C8 H8A 0.9700 .
C8 H8B 0.9700 .
C9 C18 1.364(5) .
C9 C10 1.408(6) .
C10 C11 1.350(6) .
C10 H10 0.9300 .
C11 C12 1.405(6) .
C11 H11 0.9300 .
C12 C13 1.410(6) .
C12 C17 1.417(5) .
C13 C14 1.336(7) .
C13 H13 0.9300 .
C14 C15 1.394(7) .
C14 H14 0.9300 .
C15 C16 1.373(6) .
C15 H15 0.9300 .
C16 C17 1.407(5) .
C16 H16 0.9300 .
C17 C18 1.411(5) .
loop_
_geom_torsion_atom_site_label_1
_geom_torsion_atom_site_label_2
_geom_torsion_atom_site_label_3
_geom_torsion_atom_site_label_4
_geom_torsion
_geom_torsion_site_symmetry_1
_geom_torsion_site_symmetry_2
_geom_torsion_site_symmetry_3
_geom_torsion_site_symmetry_4
C6 C1 C2 C3 1.0(6) . . . .
Br1 C1 C2 C3 178.9(3) . . . .
C1 C2 C3 C4 -1.4(6) . . . .
C2 C3 C4 C5 0.5(6) . . . .
C3 C4 C5 C6 0.8(6) . . . .
C2 C1 C6 C5 0.2(5) . . . .
Br1 C1 C6 C5 -177.6(3) . . . .
C2 C1 C6 C7 -179.8(3) . . . .
Br1 C1 C6 C7 2.4(5) . . . .
C4 C5 C6 C1 -1.1(6) . . . .
C4 C5 C6 C7 178.9(3) . . . .
C1 C6 C7 S1 85.1(4) . . . .
C5 C6 C7 S1 -94.9(4) . . . .
C8 S1 C7 C6 67.0(3) . . . .
C7 S1 C8 C9 -177.8(3) . . . .
S1 C8 C9 C18 -99.2(4) . . . .
S1 C8 C9 C10 81.4(4) . . . .
C18 C9 C10 C11 -0.7(6) . . . .
C8 C9 C10 C11 178.7(4) . . . .
C9 C10 C11 C12 0.4(6) . . . .
C10 C11 C12 C13 179.5(4) . . . .
C10 C11 C12 C17 -0.8(6) . . . .
C11 C12 C13 C14 179.9(4) . . . .
C17 C12 C13 C14 0.2(6) . . . .
C12 C13 C14 C15 -0.7(7) . . . .
C13 C14 C15 C16 1.1(7) . . . .
C14 C15 C16 C17 -1.1(6) . . . .
C15 C16 C17 C18 179.0(4) . . . .
C15 C16 C17 C12 0.6(6) . . . .
C11 C12 C17 C16 -179.8(3) . . . .
C13 C12 C17 C16 -0.1(5) . . . .
C11 C12 C17 C18 1.6(5) . . . .
C13 C12 C17 C18 -178.7(3) . . . .
C10 C9 C18 C17 1.6(5) . . . .
C8 C9 C18 C17 -177.9(3) . . . .
C10 C9 C18 Br2 -178.8(3) . . . .
C8 C9 C18 Br2 1.8(5) . . . .
C16 C17 C18 C9 179.5(4) . . . .
C12 C17 C18 C9 -2.0(5) . . . .
C16 C17 C18 Br2 -0.2(5) . . . .
C12 C17 C18 Br2 178.3(2) . . . .
