#------------------------------------------------------------------------------
#$Date: 2022-06-27 12:04:54 +0300 (Mon, 27 Jun 2022) $
#$Revision: 276283 $
#$URL: file:///home/coder/svn-repositories/cod/cif/8/10/55/8105531.cif $
#------------------------------------------------------------------------------
#
# This file is available in the Crystallography Open Database (COD),
# http://www.crystallography.net/
#
# All data on this site have been placed in the public domain by the
# contributors.
#
data_8105531
loop_
_publ_author_name
'Fang, Wang'
'Yigang, Chen'
_publ_section_title
;
 Crystal structure of sodium caesium zinc phosphate, NaCsZnP2O7
;
_journal_issue                   1
_journal_name_full
'Zeitschrift f\"ur Kristallographie - New Crystal Structures'
_journal_page_first              33
_journal_page_last               34
_journal_paper_doi               10.1515/ncrs-2018-0101
_journal_volume                  234
_journal_year                    2018
_chemical_formula_moiety         'Cs Na O7 P2 Zn'
_chemical_formula_sum            'Cs Na O7 P2 Zn'
_chemical_formula_weight         395.21
_space_group_crystal_system      monoclinic
_space_group_IT_number           14
_space_group_name_Hall           '-P 2yn'
_space_group_name_H-M_alt        'P 1 21/n 1'
_atom_sites_solution_hydrogens   .
_atom_sites_solution_primary     direct
_cell_angle_alpha                90
_cell_angle_beta                 91.249(3)
_cell_angle_gamma                90
_cell_formula_units_Z            4
_cell_length_a                   7.3873(3)
_cell_length_b                   7.6637(2)
_cell_length_c                   12.9658(4)
_cell_measurement_reflns_used    2014
_cell_measurement_temperature    293(2)
_cell_measurement_theta_max      29.9710
_cell_measurement_theta_min      3.1090
_cell_volume                     733.87(4)
_computing_molecular_graphics    'Olex2 (Dolomanov et al., 2009)'
_computing_publication_material  'Olex2 (Dolomanov et al., 2009)'
_computing_structure_refinement  'ShelXL (Sheldrick, 2015)'
_computing_structure_solution    'ShelXS (Sheldrick, 2008)'
_diffrn_ambient_temperature      293(2)
_diffrn_measured_fraction_theta_full 1.000
_diffrn_measured_fraction_theta_max 1.000
_diffrn_measurement_device_type  'multiwire proportional'
_diffrn_measurement_method       'phi and omega scans'
_diffrn_radiation_monochromator  graphite
_diffrn_radiation_type           MoK\a
_diffrn_radiation_wavelength     0.71073
_diffrn_reflns_av_R_equivalents  0.0334
_diffrn_reflns_av_unetI/netI     0.0312
_diffrn_reflns_Laue_measured_fraction_full 1.000
_diffrn_reflns_Laue_measured_fraction_max 1.000
_diffrn_reflns_limit_h_max       6
_diffrn_reflns_limit_h_min       -9
_diffrn_reflns_limit_k_max       9
_diffrn_reflns_limit_k_min       -9
_diffrn_reflns_limit_l_max       16
_diffrn_reflns_limit_l_min       -16
_diffrn_reflns_number            5402
_diffrn_reflns_point_group_measured_fraction_full 1.000
_diffrn_reflns_point_group_measured_fraction_max 1.000
_diffrn_reflns_theta_full        25.242
_diffrn_reflns_theta_max         26.371
_diffrn_reflns_theta_min         3.088
_exptl_absorpt_coefficient_mu    8.723
_exptl_absorpt_correction_T_max  1.00000
_exptl_absorpt_correction_T_min  0.84206
_exptl_absorpt_correction_type   multi-scan
_exptl_crystal_colour            colourless
_exptl_crystal_density_diffrn    3.577
_exptl_crystal_density_meas      .
_exptl_crystal_density_method    'not measured'
_exptl_crystal_description       block
_exptl_crystal_F_000             728
_exptl_crystal_size_max          0.25
_exptl_crystal_size_mid          0.15
_exptl_crystal_size_min          0.10
_refine_diff_density_max         0.902
_refine_diff_density_min         -1.068
_refine_diff_density_rms         0.153
_refine_ls_extinction_coef       0.110(2)
_refine_ls_extinction_expression Fc^*^=kFc[1+0.001xFc^2^\l^3^/sin(2\q)]^-1/4^
_refine_ls_extinction_method     'SHELXL-2014/7 (Sheldrick 2014'
_refine_ls_goodness_of_fit_ref   1.083
_refine_ls_hydrogen_treatment    undef
_refine_ls_matrix_type           full
_refine_ls_number_parameters     110
_refine_ls_number_reflns         1505
_refine_ls_number_restraints     0
_refine_ls_restrained_S_all      1.083
_refine_ls_R_factor_all          0.0246
_refine_ls_R_factor_gt           0.0221
_refine_ls_shift/su_max          0.001
_refine_ls_shift/su_mean         0.000
_refine_ls_structure_factor_coef Fsqd
_refine_ls_weighting_details
'w=1/[\s^2^(Fo^2^)+(0.0301P)^2^+0.3364P] where P=(Fo^2^+2Fc^2^)/3'
_refine_ls_weighting_scheme      calc
_refine_ls_wR_factor_gt          0.0554
_refine_ls_wR_factor_ref         0.0569
_reflns_Friedel_coverage         0.000
_reflns_Friedel_fraction_full    .
_reflns_Friedel_fraction_max     .
_reflns_number_gt                1398
_reflns_number_total             1505
_reflns_threshold_expression     'I > 2\s(I)'
_iucr_refine_instructions_details
;

    y-4244.res created by SHELXL-2014/7

TITL y-4244 in P21/n #14
REM reset to P21/n #14
CELL 0.71073 7.3873 7.6637 12.9658 90 91.249 90
ZERR 4 0.0003 0.0002 0.0004 0 0.003 0
LATT 1
SYMM 0.5-X,0.5+Y,0.5-Z
SFAC Cs Na O P Zn
UNIT 4 4 28 8 4
 
L.S. 99
PLAN  20
fmap 2
acta
SHEL 999 0.8
REM <olex2.extras>
REM <HklSrc "%.\\y-4244.hkl">
REM </olex2.extras>
 
WGHT    0.030100    0.336400
EXTI    0.109920
FVAR       0.19535
CS1   1    0.096088    0.780289    0.893599    11.00000    0.02638    0.01570 =
         0.01828   -0.00085    0.00171   -0.00372
ZN1   5   -0.159928    1.017160    0.624739    11.00000    0.01143    0.01061 =
         0.01138   -0.00016    0.00102   -0.00049
P1    4    0.034161    0.724992    1.204087    11.00000    0.01051    0.00925 =
         0.00877   -0.00031    0.00010   -0.00093
P2    4    0.181576    0.783919    0.588930    11.00000    0.01048    0.00960 =
         0.00968    0.00018   -0.00012   -0.00008
NA1   2   -0.117152    0.518359    0.613973    11.00000    0.01664    0.01433 =
         0.01623   -0.00062    0.00107    0.00022
O1    3    0.318568    0.798541    0.687244    11.00000    0.01090    0.01920 =
         0.01017   -0.00122   -0.00042    0.00079
O3    3   -0.001253    0.817696    0.637762    11.00000    0.01220    0.01601 =
         0.01969    0.00046    0.00361    0.00314
O5    3    0.187072    0.603425    0.545666    11.00000    0.02177    0.01366 =
         0.02042   -0.00676   -0.00347    0.00279
O6    3    0.237603    0.928578    0.515587    11.00000    0.02363    0.01813 =
         0.01131    0.00418   -0.00160   -0.00679
O7    3    0.103102    0.858405    1.131253    11.00000    0.01551    0.01849 =
         0.01768    0.00648    0.00104   -0.00397
O2    3    0.048975    0.773272    1.318180    11.00000    0.02144    0.01370 =
         0.01227   -0.00153   -0.00305   -0.00393
O4    3    0.113899    0.542143    1.192135    11.00000    0.01346    0.01274 =
         0.02370   -0.00045    0.00649    0.00263
HKLF 4
 
REM  y-4244 in P21/n #14
REM R1 =  0.0221 for    1398 Fo > 4sig(Fo)  and  0.0246 for all    1505 data
REM    110 parameters refined using      0 restraints
 
END  
     
WGHT      0.0301      0.3364 

REM Highest difference peak  0.902,  deepest hole -1.068,  1-sigma level  0.153
Q1    1   0.0246  0.7222  0.8425  11.00000  0.05    0.90
Q2    1   0.2400  0.7442  0.8853  11.00000  0.05    0.79
Q3    1  -0.0287  0.7899  0.8935  11.00000  0.05    0.78
Q4    1   0.0333  0.8353  0.8434  11.00000  0.05    0.78
Q5    1   0.1681  0.8285  0.9531  11.00000  0.05    0.68
Q6    1   0.1670  0.7119  0.9448  11.00000  0.05    0.63
Q7    1   0.0029  0.8125  1.1382  11.00000  0.05    0.58
Q8    1  -0.0965  0.9632  0.6811  11.00000  0.05    0.58
Q9    1  -0.0249  1.0026  0.6138  11.00000  0.05    0.55
Q10   1  -0.2516  0.9940  0.5670  11.00000  0.05    0.54
Q11   1   0.2764  0.7538  0.6363  11.00000  0.05    0.48
Q12   1   0.0649  0.8146  0.5967  11.00000  0.05    0.46
Q13   1  -0.2760  1.0738  0.6332  11.00000  0.05    0.44
Q14   1   0.1556  0.9024  0.5337  11.00000  0.05    0.42
Q15   1  -0.1945  1.0838  0.5624  11.00000  0.05    0.40
Q16   1   0.3072  0.6642  0.8999  11.00000  0.05    0.40
Q17   1  -0.1165  1.0936  0.6692  11.00000  0.05    0.39
Q18   1   0.0580  0.5184  0.6550  11.00000  0.05    0.39
Q19   1  -0.2129  0.5340  0.5850  11.00000  0.05    0.39
Q20   1   0.3151  0.7987  0.8442  11.00000  0.05    0.38

  REM The information below was added by Olex2.
  REM
  REM R1 = 0.0221 for 1398 Fo > 4sig(Fo) and 0.0246 for all 6062 data
  REM n/a parameters refined using n/a restraints
  REM Highest difference peak 0.90, deepest hole -1.07
  REM Mean Shift 0, Max Shift -0.001.

  REM +++ Tabular Listing of Refinement Information +++
  REM R1_all = 0.0246
  REM R1_gt = 0.0221
  REM wR_ref = 0.0569
  REM GOOF = 1.083
  REM Shift_max = -0.001
  REM Shift_mean = 0
  REM Reflections_all = 6062
  REM Reflections_gt = 1398
  REM Parameters = n/a
  REM Hole = -1.07
  REM Peak = 0.90
  REM Flack = n/a

  
;
_cod_data_source_file            suppl_ncrs-2018-0101_suppl.cif
_cod_data_source_block           y-4244
_cod_database_code               8105531
_shelx_space_group_comment
;
The symmetry employed for this shelxl refinement is uniquely defined
by the following loop, which should always be used as a source of
symmetry information in preference to the above space-group names.
They are only intended as comments.
;
_olex2_refinement_description
;
;
_olex2_submission_special_instructions 'No special instructions were received'
loop_
_space_group_symop_operation_xyz
'x, y, z'
'-x+1/2, y+1/2, -z+1/2'
'-x, -y, -z'
'x-1/2, -y-1/2, z-1/2'
loop_
_atom_site_label
_atom_site_type_symbol
_atom_site_fract_x
_atom_site_fract_y
_atom_site_fract_z
_atom_site_U_iso_or_equiv
_atom_site_adp_type
_atom_site_occupancy
_atom_site_site_symmetry_order
_atom_site_calc_flag
_atom_site_refinement_flags_posn
_atom_site_refinement_flags_adp
_atom_site_refinement_flags_occupancy
_atom_site_disorder_assembly
_atom_site_disorder_group
Cs1 Cs 0.09609(3) 0.78029(3) 0.89360(2) 0.02010(14) Uani 1 1 d . . . . .
Zn1 Zn -0.15993(6) 1.01716(5) 0.62474(3) 0.01113(15) Uani 1 1 d . . . . .
P1 P 0.03416(13) 0.72499(11) 1.20409(8) 0.0095(2) Uani 1 1 d . . . . .
P2 P 0.18158(13) 0.78392(11) 0.58893(8) 0.0099(2) Uani 1 1 d . . . . .
Na1 Na -0.1172(2) 0.5184(2) 0.61397(12) 0.0157(3) Uani 1 1 d . . . . .
O1 O 0.3186(3) 0.7985(3) 0.6872(2) 0.0134(6) Uani 1 1 d . . . . .
O3 O -0.0013(4) 0.8177(3) 0.6378(2) 0.0159(6) Uani 1 1 d . . . . .
O5 O 0.1871(4) 0.6034(3) 0.5457(2) 0.0187(6) Uani 1 1 d . . . . .
O6 O 0.2376(4) 0.9286(3) 0.5156(2) 0.0177(6) Uani 1 1 d . . . . .
O7 O 0.1031(3) 0.8584(3) 1.1313(2) 0.0172(6) Uani 1 1 d . . . . .
O2 O 0.0490(4) 0.7733(3) 1.3182(2) 0.0159(6) Uani 1 1 d . . . . .
O4 O 0.1139(4) 0.5421(3) 1.1921(2) 0.0165(6) Uani 1 1 d . . . . .
loop_
_atom_site_aniso_label
_atom_site_aniso_U_11
_atom_site_aniso_U_22
_atom_site_aniso_U_33
_atom_site_aniso_U_23
_atom_site_aniso_U_13
_atom_site_aniso_U_12
Cs1 0.0264(2) 0.01570(19) 0.01828(19) -0.00085(9) 0.00171(12) -0.00372(9)
Zn1 0.0114(3) 0.0106(2) 0.0114(3) -0.00016(16) 0.00102(17) -0.00049(16)
P1 0.0105(5) 0.0093(5) 0.0088(5) -0.0003(3) 0.0001(4) -0.0009(3)
P2 0.0105(5) 0.0096(5) 0.0097(5) 0.0002(3) -0.0001(4) -0.0001(3)
Na1 0.0166(8) 0.0143(8) 0.0162(8) -0.0006(5) 0.0011(6) 0.0002(6)
O1 0.0109(14) 0.0192(14) 0.0102(14) -0.0012(10) -0.0004(11) 0.0008(10)
O3 0.0122(14) 0.0160(13) 0.0197(15) 0.0005(11) 0.0036(11) 0.0031(10)
O5 0.0218(15) 0.0137(13) 0.0204(15) -0.0068(11) -0.0035(12) 0.0028(11)
O6 0.0236(15) 0.0181(13) 0.0113(14) 0.0042(10) -0.0016(11) -0.0068(11)
O7 0.0155(14) 0.0185(14) 0.0177(15) 0.0065(11) 0.0010(11) -0.0040(11)
O2 0.0214(16) 0.0137(13) 0.0123(15) -0.0015(10) -0.0030(12) -0.0039(10)
O4 0.0135(14) 0.0127(13) 0.0237(16) -0.0004(11) 0.0065(11) 0.0026(10)
loop_
_atom_type_symbol
_atom_type_description
_atom_type_scat_dispersion_real
_atom_type_scat_dispersion_imag
_atom_type_scat_source
Cs Cs -0.3680 2.1192 'International Tables Vol C Tables 4.2.6.8 and 6.1.1.4'
Na Na 0.0362 0.0249 'International Tables Vol C Tables 4.2.6.8 and 6.1.1.4'
O O 0.0106 0.0060 'International Tables Vol C Tables 4.2.6.8 and 6.1.1.4'
P P 0.1023 0.0942 'International Tables Vol C Tables 4.2.6.8 and 6.1.1.4'
Zn Zn 0.2839 1.4301 'International Tables Vol C Tables 4.2.6.8 and 6.1.1.4'
loop_
_geom_angle_atom_site_label_1
_geom_angle_atom_site_label_2
_geom_angle_atom_site_label_3
_geom_angle
_geom_angle_site_symmetry_1
_geom_angle_site_symmetry_3
Zn1 Cs1 Na1 135.38(3) 2_446 4_676
O1 Cs1 Zn1 115.10(5) . 2_446
O1 Cs1 Na1 108.78(5) . 4_676
O1 Cs1 O3 43.47(6) . .
O1 Cs1 O5 150.53(6) . 4_576
O1 Cs1 O6 98.43(7) . 2_546
O1 Cs1 O6 144.26(6) . 4_576
O1 Cs1 O2 42.28(6) . 4_675
O3 Cs1 Zn1 79.77(5) . 2_446
O3 Cs1 Na1 142.66(5) . 4_676
O3 Cs1 O5 109.76(6) . 4_576
O3 Cs1 O6 109.52(6) . 4_576
O3 Cs1 O2 85.46(6) . 4_675
O5 Cs1 Zn1 152.59(6) 2_556 2_446
O5 Cs1 Zn1 57.85(4) 4_576 2_446
O5 Cs1 Na1 37.10(5) 2_556 4_676
O5 Cs1 Na1 87.20(5) 4_576 4_676
O5 Cs1 O1 84.43(7) 2_556 .
O5 Cs1 O3 106.47(7) 2_556 .
O5 Cs1 O5 95.52(6) 2_556 4_576
O5 Cs1 O6 130.85(7) 2_556 4_576
O5 Cs1 O6 113.41(7) 2_556 2_546
O5 Cs1 O7 63.46(7) 2_556 3_577
O5 Cs1 O7 66.01(7) 2_556 .
O5 Cs1 O2 70.71(7) 2_556 4_675
O5 Cs1 O4 173.99(7) 2_556 3_567
O6 Cs1 Zn1 83.89(5) 2_546 2_446
O6 Cs1 Zn1 30.45(4) 4_576 2_446
O6 Cs1 Na1 82.11(5) 2_546 4_676
O6 Cs1 Na1 104.94(5) 4_576 4_676
O6 Cs1 O3 120.41(6) 2_546 .
O6 Cs1 O5 108.43(6) 2_546 4_576
O6 Cs1 O5 41.01(6) 4_576 4_576
O6 Cs1 O6 74.63(7) 2_546 4_576
O6 Cs1 O2 143.39(6) 4_576 4_675
O6 Cs1 O2 69.08(7) 2_546 4_675
O7 Cs1 Zn1 99.11(5) . 2_446
O7 Cs1 Zn1 93.81(5) 3_577 2_446
O7 Cs1 Na1 36.52(5) . 4_676
O7 Cs1 Na1 88.38(5) 3_577 4_676
O7 Cs1 O1 145.25(7) . .
O7 Cs1 O1 97.15(7) 3_577 .
O7 Cs1 O3 160.56(7) . .
O7 Cs1 O3 74.75(6) 3_577 .
O7 Cs1 O5 57.65(6) 3_577 4_576
O7 Cs1 O5 55.59(6) . 4_576
O7 Cs1 O6 78.46(7) . 2_546
O7 Cs1 O6 68.91(6) . 4_576
O7 Cs1 O6 163.70(7) 3_577 2_546
O7 Cs1 O6 95.27(6) 3_577 4_576
O7 Cs1 O7 86.01(7) . 3_577
O7 Cs1 O2 121.17(6) 3_577 4_675
O7 Cs1 O2 107.38(7) . 4_675
O2 Cs1 Zn1 136.69(4) 4_675 2_446
O2 Cs1 Na1 75.06(5) 4_675 4_676
O2 Cs1 O5 162.25(6) 4_675 4_576
O4 Cs1 Zn1 30.83(5) 3_567 2_446
O4 Cs1 Na1 147.92(6) 3_567 4_676
O4 Cs1 O1 89.83(7) 3_567 .
O4 Cs1 O3 67.92(7) 3_567 .
O4 Cs1 O5 88.59(6) 3_567 4_576
O4 Cs1 O6 69.17(7) 3_567 2_546
O4 Cs1 O6 54.69(6) 3_567 4_576
O4 Cs1 O7 120.00(7) 3_567 .
O4 Cs1 O7 115.71(7) 3_567 3_577
O4 Cs1 O2 106.08(6) 3_567 4_675
Cs1 Zn1 Cs1 128.848(11) 2_456 .
Cs1 Zn1 Cs1 121.800(10) 4_575 .
Cs1 Zn1 Cs1 83.800(10) 2_456 4_575
O3 Zn1 Cs1 83.19(8) . 4_575
O3 Zn1 Cs1 159.49(8) . 2_456
O3 Zn1 Cs1 49.01(8) . .
O3 Zn1 O6 114.71(12) . 3_576
O3 Zn1 O2 111.77(11) . 3_577
O3 Zn1 O4 107.44(11) . 4_575
O6 Zn1 Cs1 47.56(8) 3_576 4_575
O6 Zn1 Cs1 163.71(9) 3_576 .
O6 Zn1 Cs1 66.12(9) 3_576 2_456
O6 Zn1 O2 107.08(11) 3_576 3_577
O6 Zn1 O4 103.33(12) 3_576 4_575
O2 Zn1 Cs1 154.59(8) 3_577 4_575
O2 Zn1 Cs1 86.29(8) 3_577 2_456
O2 Zn1 Cs1 82.33(8) 3_577 .
O2 Zn1 O4 112.29(12) 3_577 4_575
O4 Zn1 Cs1 84.56(8) 4_575 .
O4 Zn1 Cs1 80.39(8) 4_575 4_575
O4 Zn1 Cs1 54.58(7) 4_575 2_456
Cs1 P1 Cs1 68.317(16) . 3_577
Cs1 P1 Cs1 89.598(18) 4_576 3_567
Cs1 P1 Cs1 80.062(18) . 3_567
Cs1 P1 Cs1 135.34(3) 3_577 3_567
Cs1 P1 Cs1 90.644(19) 3_577 4_576
Cs1 P1 Cs1 134.24(3) . 4_576
Na1 P1 Cs1 147.43(4) 3_567 3_577
Na1 P1 Cs1 71.32(4) 3_567 4_576
Na1 P1 Cs1 73.13(3) 3_567 3_567
Na1 P1 Cs1 143.01(4) 3_567 .
O1 P1 Cs1 90.55(10) 4_576 .
O1 P1 Cs1 68.61(9) 4_576 3_567
O1 P1 Cs1 44.86(10) 4_576 4_576
O1 P1 Cs1 80.64(9) 4_576 3_577
O1 P1 Na1 102.53(10) 4_576 3_567
O7 P1 Cs1 41.52(11) . 3_577
O7 P1 Cs1 132.16(11) . 4_576
O7 P1 Cs1 41.96(11) . .
O7 P1 Cs1 121.57(12) . 3_567
O7 P1 Na1 147.37(12) . 3_567
O7 P1 O1 109.95(14) . 4_576
O7 P1 O2 115.46(15) . .
O7 P1 O4 115.28(16) . .
O2 P1 Cs1 121.96(10) . 3_567
O2 P1 Cs1 57.54(11) . 4_576
O2 P1 Cs1 157.37(11) . .
O2 P1 Cs1 94.96(10) . 3_577
O2 P1 Na1 52.52(10) . 3_567
O2 P1 O1 102.01(16) . 4_576
O2 P1 O4 107.50(15) . .
O4 P1 Cs1 86.76(11) . .
O4 P1 Cs1 37.54(10) . 3_567
O4 P1 Cs1 111.22(11) . 4_576
O4 P1 Cs1 154.59(12) . 3_577
O4 P1 Na1 56.52(12) . 3_567
O4 P1 O1 105.38(14) . 4_576
Cs1 P2 Cs1 67.759(16) 4_675 2_546
Cs1 P2 Cs1 90.589(19) . 2_546
Cs1 P2 Cs1 80.882(18) 4_675 2_556
Cs1 P2 Cs1 91.330(19) . 2_556
Cs1 P2 Cs1 133.33(3) 2_556 2_546
Cs1 P2 Cs1 138.82(3) . 4_675
Na1 P2 Cs1 123.32(4) . 4_675
Na1 P2 Cs1 154.19(4) . 2_556
Na1 P2 Cs1 70.19(3) . 2_546
Na1 P2 Cs1 76.05(4) . .
O1 P2 Cs1 77.49(9) . 2_546
O1 P2 Cs1 69.66(9) . 2_556
O1 P2 Cs1 48.14(10) . .
O1 P2 Cs1 91.88(11) . 4_675
O1 P2 Na1 114.10(11) . .
O3 P2 Cs1 118.83(10) . 2_546
O3 P2 Cs1 100.06(10) . 2_556
O3 P2 Cs1 55.48(11) . .
O3 P2 Cs1 165.68(12) . 4_675
O3 P2 Na1 54.22(10) . .
O3 P2 O1 101.88(15) . .
O5 P2 Cs1 111.67(12) . .
O5 P2 Cs1 67.98(12) . 4_675
O5 P2 Cs1 32.34(10) . 2_546
O5 P2 Cs1 148.86(12) . 2_556
O5 P2 Na1 56.15(12) . .
O5 P2 O1 109.83(14) . .
O5 P2 O3 110.15(15) . .
O5 P2 O6 115.43(17) . .
O6 P2 Cs1 58.55(11) . 4_675
O6 P2 Cs1 126.24(12) . 2_546
O6 P2 Cs1 132.06(11) . .
O6 P2 Cs1 41.77(10) . 2_556
O6 P2 Na1 139.93(12) . .
O6 P2 O1 105.56(14) . .
O6 P2 O3 112.98(15) . .
Cs1 Na1 Cs1 129.65(4) 4_575 2_546
Cs1 Na1 Cs1 127.29(4) 2_446 2_546
Cs1 Na1 Cs1 71.97(3) 4_575 2_446
P1 Na1 Cs1 65.85(3) 3_567 2_546
P1 Na1 Cs1 84.41(4) 3_567 2_446
P1 Na1 Cs1 156.38(5) 3_567 4_575
P1 Na1 Na1 120.82(7) 3_567 3_566
P2 Na1 Cs1 162.95(5) . 2_446
P2 Na1 Cs1 67.93(3) . 2_546
P2 Na1 Cs1 92.39(4) . 4_575
P2 Na1 P1 111.01(5) . 3_567
P2 Na1 Na1 65.44(5) . 3_566
Na1 Na1 Cs1 71.11(5) 3_566 4_575
Na1 Na1 Cs1 58.54(4) 3_566 2_546
Na1 Na1 Cs1 113.68(6) 3_566 2_446
O3 Na1 Cs1 95.15(7) . 2_546
O3 Na1 Cs1 137.36(8) . 2_446
O3 Na1 Cs1 84.47(7) . 4_575
O3 Na1 P1 114.05(8) . 3_567
O3 Na1 P2 30.14(7) . .
O3 Na1 Na1 90.21(9) . 3_566
O3 Na1 O5 59.55(9) . .
O3 Na1 O4 92.86(10) . 3_567
O5 Na1 Cs1 67.22(8) 3_566 2_446
O5 Na1 Cs1 44.75(6) . 2_546
O5 Na1 Cs1 52.37(7) 3_566 4_575
O5 Na1 Cs1 96.67(8) . 4_575
O5 Na1 Cs1 89.48(8) 3_566 2_546
O5 Na1 Cs1 155.41(8) . 2_446
O5 Na1 P1 118.69(9) 3_566 3_567
O5 Na1 P1 105.28(8) . 3_567
O5 Na1 P2 29.50(6) . .
O5 Na1 P2 108.90(9) 3_566 .
O5 Na1 Na1 41.92(7) . 3_566
O5 Na1 Na1 46.55(8) 3_566 3_566
O5 Na1 O3 123.79(11) 3_566 .
O5 Na1 O5 88.48(10) 3_566 .
O5 Na1 O2 89.62(10) 3_566 3_567
O5 Na1 O4 113.79(10) . 3_567
O5 Na1 O4 143.34(11) 3_566 3_567
O7 Na1 Cs1 52.21(7) 4_575 2_446
O7 Na1 Cs1 175.62(9) 4_575 2_546
O7 Na1 Cs1 54.73(7) 4_575 4_575
O7 Na1 P1 110.03(9) 4_575 3_567
O7 Na1 P2 113.30(9) 4_575 .
O7 Na1 Na1 125.84(10) 4_575 3_566
O7 Na1 O3 85.16(10) 4_575 .
O7 Na1 O5 137.93(11) 4_575 .
O7 Na1 O5 93.98(11) 4_575 3_566
O7 Na1 O2 121.37(12) 4_575 3_567
O7 Na1 O4 88.15(10) 4_575 3_567
O2 Na1 Cs1 55.89(7) 3_567 2_546
O2 Na1 Cs1 76.49(7) 3_567 2_446
O2 Na1 Cs1 137.64(8) 3_567 4_575
O2 Na1 P1 29.63(7) 3_567 3_567
O2 Na1 P2 120.50(9) 3_567 .
O2 Na1 Na1 97.44(10) 3_567 3_566
O2 Na1 O3 137.36(11) 3_567 .
O2 Na1 O5 100.62(10) 3_567 .
O2 Na1 O4 58.93(9) 3_567 3_567
O4 Na1 Cs1 86.01(7) 3_567 2_446
O4 Na1 Cs1 87.47(7) 3_567 2_546
O4 Na1 Cs1 142.88(8) 3_567 4_575
O4 Na1 P1 29.93(6) 3_567 3_567
O4 Na1 P2 103.67(8) 3_567 .
O4 Na1 Na1 146.01(10) 3_567 3_566
P1 O1 Cs1 114.14(12) 4_675 .
P1 O1 P2 134.38(19) 4_675 .
P2 O1 Cs1 109.60(13) . .
Zn1 O3 Cs1 105.53(10) . .
Zn1 O3 Na1 121.13(13) . .
P2 O3 Cs1 102.75(13) . .
P2 O3 Zn1 129.70(16) . .
P2 O3 Na1 95.64(12) . .
Na1 O3 Cs1 96.28(9) . .
Cs1 O5 Cs1 84.48(6) 2_546 4_675
P2 O5 Cs1 90.35(12) . 4_675
P2 O5 Cs1 132.44(14) . 2_546
P2 O5 Na1 134.49(17) . 3_566
P2 O5 Na1 94.35(14) . .
Na1 O5 Cs1 168.87(10) . 4_675
Na1 O5 Cs1 99.61(9) . 2_546
Na1 O5 Cs1 78.04(9) 3_566 4_675
Na1 O5 Cs1 90.53(9) 3_566 2_546
Na1 O5 Na1 91.52(10) 3_566 .
Cs1 O6 Cs1 105.37(7) 2_556 4_675
Zn1 O6 Cs1 83.43(9) 3_576 4_675
Zn1 O6 Cs1 105.64(10) 3_576 2_556
P2 O6 Cs1 119.60(14) . 2_556
P2 O6 Cs1 99.65(13) . 4_675
P2 O6 Zn1 131.46(16) . 3_576
Cs1 O7 Cs1 93.99(7) . 3_577
P1 O7 Cs1 119.55(14) . .
P1 O7 Cs1 120.21(14) . 3_577
P1 O7 Na1 131.89(15) . 4_676
Na1 O7 Cs1 92.76(9) 4_676 3_577
Na1 O7 Cs1 88.75(9) 4_676 .
Zn1 O2 Cs1 112.66(11) 3_577 4_576
Zn1 O2 Na1 122.39(13) 3_577 3_567
P1 O2 Cs1 101.06(12) . 4_576
P1 O2 Zn1 126.19(16) . 3_577
P1 O2 Na1 97.86(12) . 3_567
Na1 O2 Cs1 89.03(9) 3_567 4_576
Zn1 O4 Cs1 94.59(9) 4_676 3_567
Zn1 O4 Na1 114.05(12) 4_676 3_567
P1 O4 Cs1 125.03(14) . 3_567
P1 O4 Zn1 126.36(16) . 4_676
P1 O4 Na1 93.55(14) . 3_567
Na1 O4 Cs1 101.62(9) 3_567 3_567
loop_
_geom_bond_atom_site_label_1
_geom_bond_atom_site_label_2
_geom_bond_distance
_geom_bond_site_symmetry_2
Cs1 Zn1 3.8041(5) 2_446
Cs1 Na1 3.8431(15) 4_676
Cs1 O1 3.173(3) .
Cs1 O3 3.391(3) .
Cs1 O5 3.751(3) 4_576
Cs1 O5 3.044(3) 2_556
Cs1 O6 3.501(3) 4_576
Cs1 O6 3.178(3) 2_546
Cs1 O7 3.138(3) .
Cs1 O7 3.149(3) 3_577
Cs1 O2 3.530(3) 4_675
Cs1 O4 3.110(3) 3_567
Zn1 Cs1 4.1462(5) 4_575
Zn1 Cs1 3.8041(5) 2_456
Zn1 O3 1.931(3) .
Zn1 O6 1.941(3) 3_576
Zn1 O2 1.942(2) 3_577
Zn1 O4 1.956(3) 4_575
P1 Cs1 4.1799(9) 3_567
P1 Cs1 4.1051(9) 3_577
P1 Cs1 4.1059(10) 4_576
P1 Na1 3.0587(17) 3_567
P1 O1 1.613(3) 4_576
P1 O7 1.489(3) .
P1 O2 1.526(3) .
P1 O4 1.529(3) .
P2 Cs1 4.1477(9) 2_556
P2 Cs1 4.0461(10) 4_675
P2 Cs1 4.1988(9) 2_546
P2 Na1 3.0247(18) .
P2 O1 1.614(3) .
P2 O3 1.526(3) .
P2 O5 1.494(3) .
P2 O6 1.524(3) .
Na1 Cs1 4.2628(15) 2_546
Na1 Cs1 3.9801(15) 2_446
Na1 Cs1 3.8431(15) 4_575
Na1 P1 3.0588(17) 3_567
Na1 Na1 3.469(3) 3_566
Na1 O3 2.466(3) .
Na1 O5 2.519(3) .
Na1 O5 2.319(3) 3_566
Na1 O7 2.288(3) 4_575
Na1 O2 2.450(3) 3_567
Na1 O4 2.556(3) 3_567
O1 P1 1.613(3) 4_675
O5 Cs1 3.751(3) 4_675
O5 Cs1 3.044(3) 2_546
O5 Na1 2.318(3) 3_566
O6 Cs1 3.501(3) 4_675
O6 Cs1 3.178(3) 2_556
O6 Zn1 1.941(3) 3_576
O7 Cs1 3.149(3) 3_577
O7 Na1 2.288(3) 4_676
O2 Cs1 3.530(3) 4_576
O2 Zn1 1.942(2) 3_577
O2 Na1 2.450(3) 3_567
O4 Cs1 3.110(3) 3_567
O4 Zn1 1.956(3) 4_676
O4 Na1 2.556(3) 3_567
loop_
_refln_index_h
_refln_index_k
_refln_index_l
_refln_F_squared_meas
_refln_F_squared_sigma
0 0 -2 13.39 0.87
0 0 -3 0.86 0.46
0 0 -4 1000 26.36
0 0 -5 1.33 0.71
0 0 -6 149.53 5.98
0 0 -7 0.8 0.74
0 0 7 0.83 0.54
0 0 7 0.79 0.52
0 0 8 352.47 11.79
0 0 -8 363.1 12.17
0 0 -9 1.07 0.91
0 0 -10 590.75 19.02
0 0 -11 3.2 1.27
0 0 -12 256.77 11.05
0 0 -13 0.95 0.77
0 0 -14 181.3 9.77
0 0 14 200.87 10.27
0 0 15 -0.03 1.07
0 0 -15 1.34 1.17
0 0 -16 15.24 2.88
0 0 16 12.25 2.57
0 1 0 0.97 0.27
0 -1 -1 73.56 2.62
0 -1 -1 68.76 2.32
0 -1 -1 73.2 2.35
0 1 -1 70.67 2.69
0 -1 -2 109.39 3.32
0 -1 -2 109.27 3.35
0 1 2 102.91 3.32
0 1 -2 106.38 3.89
0 1 2 109.68 3.41
0 1 -3 130.39 4.75
0 -1 -3 133.4 4.22
0 1 3 123.76 4
0 1 3 128.16 4.28
0 -1 -3 126.21 3.95
0 1 -4 176.76 6.33
0 1 4 177.5 5.89
0 -1 -4 171.65 5.71
0 1 4 173.04 5.38
0 1 5 52 2.84
0 1 -5 51.01 3.06
0 1 5 55.22 3.02
0 -1 -5 55.36 2.77
0 1 5 51.71 2.39
0 1 -6 425.85 13.15
0 1 6 383.21 12.62
0 -1 -6 404.19 12.32
0 1 6 409.31 11.69
0 1 6 415.74 12.72
0 1 7 61.52 3.68
0 1 7 60.16 3.66
0 -1 -7 61 3.45
0 1 7 63.03 3.01
0 1 -7 61.86 3.86
0 -1 8 118.2 5.2
0 -1 -8 124.68 5.7
0 1 -8 129.58 6.27
0 1 8 130.99 5.06
0 -1 9 15.57 1.7
0 -1 -9 13.17 1.85
0 1 -9 16.24 2.2
0 -1 10 48.55 3.36
0 1 -10 47.87 3.98
0 -1 -10 52 3.78
0 1 -11 14.81 2.35
0 -1 -11 16.55 2.23
0 1 12 170.94 8.69
0 -1 -12 160.29 8
0 1 -12 171.69 8.89
0 1 13 2.63 1.19
0 1 -13 3.92 1.35
0 -1 -13 4.95 1.57
0 -1 -14 1.52 0.87
0 1 14 1.52 0.94
0 1 -14 3.75 1.75
0 1 -15 62.38 5.88
0 -1 -15 59.35 5.21
0 -1 15 64.55 5.72
0 1 15 73.6 6.11
0 1 16 249.35 12.91
0 -1 16 250.7 12.75
0 1 -16 256.11 13.24
0 -1 -16 239.21 12.13
0 2 0 347.19 10.11
0 -2 0 346.78 10.07
0 2 0 363.5 10.45
0 -2 0 375.2 9.62
0 2 1 99.88 3.54
0 2 -1 95.68 3.35
0 -2 1 93.42 3.26
0 -2 -1 100.11 3.63
0 -2 -1 92.52 3.74
0 2 1 95.27 3.17
0 2 -1 96.59 3.79
0 -2 -1 97.35 2.82
0 -2 -1 98.43 3.25
0 2 1 96.07 3.7
0 2 -2 21.09 1.73
0 -2 -2 24.4 1.41
0 2 2 19.98 1.27
0 2 2 21.89 1.41
0 -2 2 21.05 1.1
0 2 2 22.51 0.93
0 2 2 23.52 1.34
0 -2 2 20.06 1.75
0 2 -3 14.2 1.53
0 2 3 16.55 1.17
0 -2 3 14.03 1.53
0 2 3 14.52 1.08
0 2 3 16.53 0.88
0 2 3 12.89 1.17
0 -2 -3 13.38 1.08
0 2 -4 109.04 5.05
0 -2 -4 115.89 4.14
0 2 4 123.09 4.4
0 2 4 109.89 4.5
0 2 4 117.28 4.22
0 2 5 0.2 0.31
0 2 -5 -0.24 0.59
0 2 5 0.72 0.51
0 2 5 0.33 0.31
0 -2 -5 0.61 0.42
0 -2 -5 0.57 0.41
0 2 6 215.2 7.87
0 2 -6 225.02 8.62
0 2 6 214.28 7.12
0 -2 -6 209.74 7.28
0 2 6 204.71 7.58
0 2 -7 26.49 2.62
0 2 7 26.01 2.35
0 2 7 28.9 2.4
0 2 7 28.25 2.02
0 -2 -7 28.25 2.18
0 2 -8 105.42 5.9
0 2 8 98.77 5.29
0 2 8 104.26 4.62
0 -2 -8 107.79 4.99
0 -2 9 82.19 3.99
0 2 9 83.26 5.03
0 2 -9 83.01 5.4
0 -2 -9 84.15 4.58
0 2 -10 394.09 14.68
0 -2 -10 362.57 12.92
0 -2 10 381.24 12.2
0 2 10 380.57 13.81
0 -2 -11 40.57 3.37
0 2 11 39.01 3.71
0 2 -11 41.74 4.17
0 2 12 62.3 4.98
0 -2 -12 59.83 4.44
0 2 -12 73.91 5.73
0 2 13 52.36 4.75
0 -2 -13 51.17 4.27
0 2 -13 60.39 5.41
0 -2 -14 87.77 5.95
0 2 14 78.81 6.31
0 2 -14 85.33 6.84
0 -2 -15 3.74 1.54
0 2 15 3.88 1.8
0 2 -15 2.38 1.48
0 -2 16 118.69 8.29
0 -2 -16 124.13 7.87
0 3 0 0.88 0.45
0 -3 0 1.16 0.57
0 -3 0 0.04 0.33
0 -3 0 -0.02 0.26
0 3 1 229.55 7.57
0 3 -1 222 7.51
0 3 1 216.35 6.65
0 3 -1 217.27 7.11
0 -3 -1 230.52 6.33
0 3 1 223.59 7.5
0 -3 -1 229.26 6.83
0 -3 1 221.13 7
0 -3 -1 210.74 7.55
0 -3 -1 232.01 7.56
0 3 2 246.74 8.57
0 -3 -2 268.85 7.03
0 -3 -2 263.34 8.32
0 -3 2 257.51 7.59
0 3 -2 259.72 8.89
0 3 2 266.59 8.24
0 3 2 251.11 7.78
0 3 2 266.72 7.02
0 -3 -2 250.37 7.95
0 -3 -3 64 3.04
0 3 3 64.37 3.17
0 3 3 61.28 2.93
0 3 -3 67.43 3.75
0 3 3 62.1 2.92
0 3 3 63.1 3.48
0 -3 3 71.28 3.96
0 3 3 67.1 2.22
0 -3 3 66.58 2.49
0 3 4 145.59 5.58
0 -3 4 147.89 4.55
0 3 4 154.22 4.56
0 -3 -4 151.46 5.46
0 -3 4 147.93 6.6
0 3 -4 159.04 6.63
0 3 4 151.86 5.6
0 3 4 152.48 5.33
0 3 5 315.57 9.91
0 3 5 308 8.92
0 3 5 303.95 9.84
0 3 5 308.69 10.21
0 -3 5 334.78 11.58
0 3 -5 319.52 11.33
0 -3 -5 334.53 9.82
0 3 -6 113.65 6.09
0 3 6 123.97 5.15
0 3 6 126.94 5.63
0 -3 -6 126.3 4.98
0 3 6 135.29 5.48
0 3 6 135.25 4.64
0 3 7 142.51 5.23
0 3 7 140.91 5.71
0 -3 -7 133.08 5.33
0 3 -7 141.2 7.05
0 3 7 136.15 6.02
0 3 7 134.8 6.18
0 3 8 15.6 1.96
0 3 -8 21.1 2.63
0 3 9 188.02 8.42
0 -3 9 199.33 6.55
0 3 -9 182.35 9.08
0 3 -10 28.52 3.49
0 3 10 36.64 3.41
0 3 11 43.65 3.93
0 3 -11 39.42 4.21
0 3 -12 157.45 9.21
0 3 12 151.18 8.29
0 3 -13 103.31 7.66
0 3 13 115.33 7.41
0 3 14 6.58 1.9
0 3 -14 6.8 2.2
0 3 15 0.37 1.18
0 3 -15 0.46 1.21
0 -3 16 148.78 9.33
0 -4 0 860.25 25.39
0 4 0 850.94 24.5
0 -4 0 924.22 23.82
0 -4 0 874.51 24.62
0 -4 0 904.93 23.53
0 -4 1 372.99 10.93
0 4 1 368.59 12.08
0 -4 1 373.91 11.54
0 -4 -1 394.51 12.41
0 -4 -1 381.17 11.12
0 -4 -1 398.23 10.65
0 -4 -1 409.53 12.53
0 4 -1 371.84 11.63
0 4 1 405.65 12.48
0 4 -1 394 12.05
0 4 -2 9.74 1.39
0 4 2 13.93 1.62
0 4 2 15.13 1.28
0 -4 2 15.39 1.34
0 4 2 14.95 1.62
0 -4 -2 13.55 0.86
0 -4 -2 13.52 1.5
0 4 3 432.13 13.06
0 -4 3 453.12 12.53
0 4 3 455.6 13.66
0 -4 -3 462.95 13.71
0 4 -3 463.94 14.53
0 4 4 618.58 15.91
0 4 4 603.88 17.51
0 -4 -4 642.59 17.84
0 4 4 604.11 18.09
0 4 4 600.63 17.54
0 4 4 605.15 17.13
0 -4 4 622.8 16.25
0 4 -4 630.46 19.09
0 4 5 60.52 3.15
0 4 5 57.72 2.23
0 -4 5 58.1 2.13
0 -4 -5 51.92 3.08
0 4 -5 53.6 3.89
0 4 5 54.08 3.02
0 4 5 59.64 3.35
0 -4 6 159.53 4.64
0 4 6 164.27 6.2
0 -4 -6 169.77 6.41
0 4 6 173.49 5.28
0 4 6 164.11 6.49
0 4 6 161.59 6.73
0 4 -6 161.66 7.74
0 4 7 392.08 13.18
0 4 7 393.73 11.3
0 -4 -7 399.1 12.41
0 4 -7 384.27 14.35
0 4 8 188.44 6.35
0 4 -8 178.41 8.85
0 -4 8 174.34 5
0 -4 -8 171.29 6.83
0 4 8 183.07 7.86
0 4 9 25.73 2.81
0 4 9 31.48 2.26
0 4 -9 30.77 3.54
0 4 10 400.99 14.87
0 4 -10 420.81 16.36
0 4 10 409.49 12.99
0 4 -11 179.81 9.91
0 4 11 184.01 7.35
0 4 11 171.23 8.81
0 4 12 85 4.76
0 4 12 82.61 5.96
0 4 -12 95.94 7.17
0 4 -13 5.04 1.85
0 4 13 6.83 1.71
0 4 14 86.11 6.73
0 4 -14 86.58 7.45
0 -4 16 7.08 2.08
0 -5 0 0.08 0.38
0 -5 0 0.43 0.65
0 5 0 0.28 0.48
0 -5 0 -0.01 0.27
0 5 0 0.64 0.62
0 -5 -1 0.05 0.3
0 5 -1 0.7 0.6
0 5 -1 -0.43 0.59
0 -5 -1 0.61 0.36
0 -5 1 0.48 0.29
0 5 1 0.37 0.43
0 -5 1 1.04 0.56
0 -5 -1 0.55 0.61
0 -5 2 223.57 7.58
0 -5 2 201.77 7
0 -5 -2 214.53 8.46
0 5 -2 216.02 8.44
0 -5 -2 225 6.43
0 5 2 233.68 8.74
0 5 3 59.12 3.17
0 -5 -3 60.77 3.71
0 5 3 65.11 3.87
0 5 -3 61.07 3.95
0 -5 3 62.85 3
0 5 4 39.58 2.64
0 -5 4 45.84 2.2
0 5 4 35.42 2.81
0 5 4 38.16 2.44
0 -5 -4 41.56 2.96
0 5 -4 39.44 3.32
0 5 5 165.24 4.79
0 -5 -5 159.42 6.73
0 5 5 158.44 6.24
0 5 -5 164.94 7.73
0 5 5 161.58 6.59
0 5 5 162.74 6.75
0 5 -6 340.07 12.83
0 5 6 349.68 11.38
0 5 6 312.55 10.94
0 -5 -6 335.18 11.28
0 5 6 335.26 9.16
0 5 6 327.12 11.42
0 5 -7 1.19 1.08
0 5 7 1.24 0.35
0 -5 -7 1.68 0.83
0 5 7 0.97 0.78
0 5 7 1.54 0.7
0 -5 -8 7.62 1.32
0 5 8 5.14 0.71
0 5 -8 7.45 1.7
0 5 8 5.06 1.05
0 5 8 4.37 1.2
0 5 -9 89.78 6.31
0 5 9 85.78 5.37
0 5 9 92.46 3.82
0 5 9 91.56 4.72
0 -5 -9 83.9 4.68
0 5 10 57.53 4.58
0 5 10 65.46 3.94
0 5 -10 70.49 5.69
0 5 11 60.08 4.81
0 5 -11 50.08 5.05
0 5 11 60.03 3.83
0 5 -12 13.54 2.79
0 5 12 17.18 2.77
0 5 -13 7.58 2.22
0 5 13 3.76 1.6
0 5 -14 8.6 2.62
0 5 14 6.81 1.96
0 6 0 5.66 1.11
0 -6 0 4.57 0.86
0 -6 0 3.88 0.68
0 -6 0 3.55 1.33
0 6 -1 229.38 8.69
0 -6 -1 229.74 7.13
0 -6 -1 230.63 9.51
0 -6 1 217.62 9.78
0 -6 1 202.37 8.08
0 6 1 226.7 8.16
0 -6 1 213 7.05
0 -6 2 6.44 1.25
0 6 -2 3.36 1.03
0 -6 -2 5.27 0.62
0 -6 2 3.2 0.58
0 -6 -2 4.05 1.24
0 -6 -3 156.54 7.28
0 6 -3 164.8 7.45
0 -6 3 164.97 5.83
0 6 4 80.31 4.8
0 6 4 76.18 4.06
0 6 -4 79.6 4.93
0 6 5 9.92 1.75
0 -6 -5 11.26 1.72
0 6 5 10.65 1.53
0 6 5 9.88 1.34
0 6 -5 9.32 1.79
0 6 6 16.72 1.97
0 6 6 15.09 1.98
0 -6 -6 18.32 2.11
0 6 -6 19.09 2.59
0 6 -7 81.43 5.65
0 -6 -7 80.55 4.77
0 6 7 77.71 4.76
0 6 7 89.8 5.07
0 -6 -8 81.28 4.84
0 6 8 83.16 5.12
0 6 8 85.67 4.96
0 6 -8 78.74 5.78
0 6 9 162.65 7.35
0 6 9 164.06 8.06
0 6 -9 160.53 8.99
0 -6 -9 154.46 7.25
0 -6 -10 58.82 4.15
0 6 10 66.1 4.99
0 6 -10 71.25 5.85
0 6 10 67.25 4.33
0 6 -11 107.79 7.66
0 6 11 105.06 6.86
0 6 -12 32.59 4.27
0 6 12 33.46 3.94
0 6 -13 81.11 7.07
0 6 13 72.7 6.11
0 7 0 0.36 0.66
0 -7 0 2.04 1.15
0 7 -1 73.29 4.55
0 -7 -1 77.72 5.33
0 7 1 77.55 4.34
0 -7 1 77.88 5.57
0 7 -2 1.28 0.85
0 -7 2 2.12 1.34
0 7 2 0.77 0.59
0 7 -3 24.98 2.73
0 -7 -3 27.64 2.94
0 7 -4 0.4 0.72
0 -7 -4 -0.58 0.85
0 -7 -5 371.81 13.75
0 7 -5 387.51 14.28
0 -7 -6 0.75 0.83
0 7 6 1.65 1.05
0 7 6 1.1 0.78
0 7 -7 58.86 4.86
0 -7 -7 57.36 4.27
0 7 7 58.62 4.48
0 7 7 63.06 4.31
0 7 -8 4.86 1.6
0 7 8 3.65 1.06
0 -7 -8 2.62 0.99
0 7 8 4.79 1.3
0 7 -9 143.25 8.53
0 -7 -9 129.63 6.94
0 7 9 138.96 7.49
0 7 9 141.08 7.32
0 7 -10 15.49 2.83
0 -7 -10 15.67 2.28
0 7 10 19.03 2.73
0 7 -11 4.66 1.66
0 7 11 6.06 1.75
0 7 -12 21.59 3.54
0 7 12 19.57 3.09
0 8 0 42.41 3.39
0 -8 0 39.81 4.13
0 -8 -1 323.92 13.52
0 8 1 319.43 11.7
0 8 -1 341.36 12.22
0 -8 1 308.01 13.7
0 8 -2 1.41 0.8
0 -8 -2 0.02 0.91
0 -8 2 0.97 1.01
0 -8 3 367.48 15.67
0 8 -3 365.1 13.67
0 -8 -3 377.36 14.58
0 -8 4 54.17 5.19
0 -8 -4 47.02 4.23
0 8 -4 50.55 4.19
0 -8 -5 38.14 3.76
0 8 -5 43.02 3.95
0 -8 -6 1.45 0.86
0 8 -6 0.74 0.87
0 8 -7 363.11 14.8
0 -8 -7 367.41 14.22
0 8 -8 25.03 3.4
0 -8 -8 23.43 2.98
0 -8 -9 16.26 2.44
0 8 -9 15.28 2.72
0 8 -10 0.92 1.1
0 8 -11 226.11 12.06
0 -9 0 -0.01 1
0 -9 1 28.39 3.76
0 -9 -1 24.83 3.46
0 -9 2 14.15 2.87
0 -9 -2 13.98 2.57
0 -9 -3 1.66 0.91
0 -9 3 0.83 1.39
0 -9 -4 -0.11 0.89
0 -9 4 -1.74 1.55
0 -9 -5 90.17 6.51
0 -9 5 101.92 7.82
0 -9 -6 9.49 2.1
0 -9 -7 5.54 1.65
0 -9 -8 2 1.04
1 0 -16 0.53 1.13
1 0 -15 97.58 6.98
1 0 -14 -0.27 0.98
1 0 -13 460.45 16.91
1 0 -12 -0.04 0.72
1 0 -11 99.43 5.85
1 0 -10 -0.36 0.78
1 0 -9 476.61 15.57
1 0 -8 0.55 0.77
1 0 -7 118.99 5.38
1 0 -6 1.94 0.77
1 0 -5 303.83 9.6
1 0 -4 0.16 0.53
1 0 -3 323.68 9.34
1 0 -2 1.29 0.37
-1 0 1 74.4 2.53
-1 0 -1 49.13 1.95
-1 0 -1 53.07 1.93
-1 0 -2 0.5 0.27
-1 0 -2 -0.16 0.41
1 0 2 0.53 0.17
-1 0 -2 0.31 0.35
-1 0 -3 32.92 1.74
1 0 3 29.67 2
-1 0 -3 35.41 2.09
1 0 3 32.18 1.89
-1 0 -3 31.28 1.73
-1 0 -4 0.53 0.47
-1 0 -4 0.8 0.4
1 0 4 -0.09 0.48
1 0 4 0.79 0.54
1 0 5 166.67 6.29
-1 0 -5 175.22 6.59
-1 0 -5 191.46 6.16
1 0 5 178.42 6.83
-1 0 -6 0.47 0.64
1 0 6 -0.02 0.43
1 0 6 0.65 0.69
1 0 7 165.65 6.74
1 0 7 169.84 7.23
1 0 7 160.14 6.52
-1 0 -7 160.17 6.81
-1 0 -8 0.39 0.61
1 0 8 -0.49 0.76
1 0 8 0.9 0.68
1 0 9 0.06 0.74
-1 0 -9 -0.76 0.74
1 0 9 -0.72 0.71
-1 0 -10 -0.76 0.94
1 0 10 -0.93 0.83
-1 0 -11 94.33 5.9
1 0 11 104.38 6.12
1 0 12 -0.54 0.81
-1 0 -12 0.85 0.77
1 0 13 70.13 5.37
-1 0 -13 68.62 5.41
1 0 14 0.09 1.19
-1 0 -14 2 1.56
1 0 15 1.49 1.05
-1 0 -15 1.89 1.33
-1 0 -16 -0.05 1.11
1 0 16 -0.49 0.93
-1 1 16 22.04 3.67
1 1 -16 20.12 3.45
1 -1 -16 18.62 3.07
1 1 -15 51.39 5.08
1 -1 -15 47.31 4.61
1 -1 -14 55.52 4.83
1 1 -14 76.51 5.96
1 1 -13 19.29 2.85
1 -1 -13 22.72 2.93
1 1 -12 6.47 1.76
1 -1 -12 9.19 1.79
1 1 -11 45.56 3.97
1 -1 -11 42.16 3.58
1 1 -10 65.42 4.62
1 -1 -10 70.7 4.46
1 1 -9 163.22 7.42
-1 1 9 156.19 5.75
1 -1 -9 153.02 6.89
1 -1 -8 132.29 6.01
1 1 -8 140.83 6.48
-1 1 8 137.68 5.02
1 1 -7 413.53 13.27
1 -1 -7 395.24 12.76
-1 1 7 408.62 11.56
1 1 -6 47.74 3.1
-1 1 6 52.73 2.32
1 -1 -6 56.68 3.16
-1 1 6 55.05 3.22
1 1 -5 207.13 7.28
-1 1 5 204.58 6.04
1 -1 -5 204.23 6.99
1 1 -4 164.12 5.86
-1 1 4 165.44 4.8
1 -1 -4 165.59 5.68
-1 1 3 397.34 10.62
1 1 -3 384.21 10.86
-1 1 3 368.46 9.76
1 1 -2 118.48 3.97
-1 1 2 120.09 3.86
1 -1 -2 119.85 3.29
-1 1 1 68.3 2.38
-1 -1 1 63.29 2.19
1 1 -1 60.32 2.16
-1 -1 1 63.24 2.47
-1 1 0 97.43 3.25
-1 -1 0 99.16 3.23
-1 -1 0 100.13 2.94
1 1 0 98.19 2.93
-1 -1 -1 5.17 0.66
-1 1 -1 6.05 0.44
-1 -1 -1 6.89 0.66
-1 -1 -1 4.98 0.82
1 1 1 6.61 0.44
-1 1 -1 6.57 0.64
-1 -1 -1 6.31 0.43
-1 -1 -2 196.05 5.97
-1 -1 -2 205.48 5.63
-1 1 -2 206.61 6.24
1 1 2 192.34 5.55
1 1 2 191.25 5.78
-1 1 -2 207.69 6.98
-1 -1 -2 200.97 6.72
1 -1 2 202.62 5.74
-1 -1 -2 214.11 6.3
1 -1 2 202.96 6.16
-1 -1 -3 626.42 18.28
1 -1 3 653.2 18.05
-1 1 -3 646.24 18.98
-1 -1 -3 656.63 17.99
1 1 3 667.42 17.73
-1 1 -3 684.84 17.01
-1 -1 -3 672.75 17.62
-1 -1 -3 663.4 17.49
1 -1 3 679.92 17.65
1 1 4 186.02 6.52
-1 -1 -4 200.86 6.98
-1 1 -4 192.5 7.52
-1 1 -4 213.33 5.83
-1 -1 -4 187.9 6.33
1 -1 4 212.51 6.15
1 -1 4 194.02 6.47
-1 -1 -5 136.9 5.19
1 1 5 138.13 5.44
-1 1 -5 144.42 6.2
1 -1 5 141.34 5.36
-1 -1 -5 151.14 5.76
1 1 5 138.53 5.06
1 -1 5 142.92 4.9
1 1 5 152.47 6
1 1 6 109.68 4.4
-1 1 -6 110.91 5.51
1 -1 6 110.38 4.33
-1 -1 -6 100.07 4.56
1 1 6 108.64 5.15
1 1 6 114.57 5
1 -1 7 574.67 15.71
1 1 7 533.29 15.59
-1 1 -7 561.02 17.46
-1 -1 -7 525.86 16.08
1 1 7 547.84 16.67
-1 1 -8 109.17 6.03
1 -1 8 107.04 5.36
-1 -1 -8 107.82 5.28
1 -1 8 120.58 5.05
1 1 8 111.21 5.6
-1 -1 -9 107.35 5.46
-1 1 -9 103.19 6.14
1 1 9 102.47 5.66
1 -1 9 111.24 5.72
1 -1 9 116.95 5.27
-1 -1 -10 46.39 3.58
1 1 10 54.24 4.05
-1 1 -10 52.48 4.29
1 -1 10 44.91 3.66
1 -1 10 51.46 3.45
1 1 11 55.03 4.38
1 -1 11 56.46 4.31
-1 -1 -11 52.29 4
-1 1 -11 52.26 4.56
1 1 12 15.89 2.46
1 -1 12 16.43 2.43
-1 -1 -12 15.61 2.38
-1 1 -12 18.18 2.79
1 1 13 294.35 12.64
-1 -1 -13 280.23 11.98
-1 1 -13 282.17 13.03
1 -1 13 280.98 12.26
-1 1 -14 68.78 6.07
-1 -1 -14 87.18 6.04
1 1 14 75.26 5.94
1 -1 14 76.55 5.92
1 -1 15 0.41 1.04
1 1 15 0.7 1.37
-1 -1 -15 -0.69 1.2
-1 1 -15 0.96 1.52
-1 -1 -16 1.01 0.97
1 -1 16 -0.29 1.04
-1 1 -16 0.22 1.45
1 1 16 -0.58 0.8
-1 2 17 20.78 2.99
-1 2 15 36.04 4.42
1 -2 -15 31.35 3.72
1 2 -15 32.11 4.18
1 -2 -14 20.12 2.8
-1 2 14 24.49 3.48
1 2 -14 29.88 3.9
1 -2 -13 285.92 12
1 2 -13 306.93 13.54
1 -2 -12 55.66 4.31
1 2 -12 58.35 4.96
1 2 -11 205.71 9.58
1 -2 -11 184.44 8.39
1 2 -10 76.41 5.23
1 -2 -10 81.34 4.81
1 -2 -9 507.86 16.36
-1 2 9 522.08 15.26
1 2 -9 542.14 17.68
-1 2 8 2.33 0.6
1 2 -8 0.98 0.79
1 2 -7 522.05 16.58
-1 2 7 521.29 14.67
1 2 -6 4.07 1
-1 2 6 3.5 0.81
-1 2 6 2.42 0.67
-1 2 6 4.77 0.67
-1 -2 6 3.58 0.98
-1 -2 5 100.77 4.76
-1 2 5 108.07 3.77
-1 2 5 103.81 4.51
1 -2 -5 102.31 3.6
1 2 -5 110.02 4.9
-1 2 5 107.89 4.16
-1 2 4 133.37 4.96
1 -2 -4 125.7 4.15
1 2 -4 129.44 5.21
-1 -2 4 119.02 5.08
-1 2 4 132.79 4.28
-1 2 4 135.84 4.57
1 -2 -3 853.34 21.21
-1 -2 3 855.43 22.22
1 -2 -3 855.6 21.59
1 2 -3 837.78 22.16
-1 2 3 795.79 21.39
1 2 -2 122.34 4.48
-1 -2 2 129.73 4.57
1 -2 -2 139.22 4.37
1 -2 -2 132.13 4.29
-1 2 2 137.05 4.33
-1 -2 1 13.12 0.98
-1 -2 1 16.22 1.42
-1 2 1 13.38 0.98
1 -2 -1 12.36 0.97
1 2 -1 13.73 0.93
1 2 0 199.32 5.63
-1 2 0 223.16 6.68
-1 -2 0 220.3 6.78
1 -2 0 215.18 6.41
-1 2 0 220.78 6.39
-1 -2 0 212.83 7.3
-1 -2 -1 866.41 23.57
-1 2 -1 856.31 23.53
-1 -2 -1 853.49 23.45
-1 -2 -1 901.63 24.33
1 -2 1 895.77 23.54
-1 -2 -2 54.22 2.64
1 2 2 54.4 1.8
-1 2 -2 55.44 3.14
-1 2 -2 50.89 2.76
-1 -2 -2 52.69 2.48
1 2 2 49.05 2.49
-1 -2 -2 49.16 2.09
-1 -2 -2 50.95 2.99
1 -2 2 54.83 1.83
1 -2 3 180.58 5.51
-1 -2 -3 187.5 6.09
-1 -2 -3 185.23 6.36
-1 2 -3 192.17 7.38
1 2 3 178.7 5.51
-1 -2 -3 193.56 5.36
1 2 3 184.51 5.49
-1 -2 -3 184.37 6.91
1 2 3 178.96 6.26
1 -2 3 178.13 6.69
1 2 4 147.27 4.29
-1 -2 -4 136.13 5.06
1 2 4 137.78 5.16
-1 -2 -4 142.49 5.48
-1 -2 -4 142.58 4.67
1 2 4 145.28 4.92
-1 -2 -4 137.54 5.94
-1 2 -4 139.91 6.41
1 -2 4 141.31 5.86
-1 -2 -5 711 19.07
1 2 5 695.31 19.49
-1 2 -5 710.21 21.43
-1 -2 -5 707.05 20.68
1 2 5 741.46 19.56
-1 -2 -5 682.36 19.26
-1 -2 -6 11.57 1.24
1 2 6 11.79 1.39
1 -2 6 13.14 0.95
1 2 6 11.79 1.29
-1 2 -6 8.5 1.55
-1 -2 -7 419.43 13.13
1 2 7 424.03 13.73
-1 2 -7 424.51 15.14
1 -2 7 455.01 12.29
1 -2 8 229.34 7.28
-1 2 -8 226.07 9.83
1 2 8 220.94 8.89
-1 -2 -8 205.58 8.01
1 -2 9 418.47 12.15
-1 2 -9 391.8 15
-1 -2 -9 382.1 12.96
1 2 9 382.45 13.85
1 -2 10 30.32 2.27
-1 -2 -10 27.28 2.61
-1 2 -10 31.38 3.5
1 2 10 23.38 2.76
1 2 11 191.97 9.09
-1 2 -11 192.07 9.95
-1 -2 -11 190.8 8.32
1 -2 11 189.47 8.72
1 2 12 60.35 4.81
1 -2 12 51.41 4.29
-1 2 -12 61.94 5.38
-1 -2 -12 47.25 3.91
-1 2 -13 127.92 8.55
1 -2 13 129.42 7.57
-1 -2 -13 128.61 7.1
1 2 13 138.56 8.04
1 -2 14 -1.23 1.08
1 2 14 2.57 1.53
-1 2 -14 -1.48 1.76
-1 -2 -14 -0.71 0.94
1 -2 15 90.57 6.77
-1 -2 -15 86.66 6.22
1 2 15 95.08 7.17
-1 2 -15 96.24 7.79
-1 -2 -16 18.37 2.96
1 -2 16 19.57 3.25
-1 -2 -17 4.84 1.74
-1 3 16 0.69 0.86
-1 3 15 38.05 3.61
-1 3 15 36.46 4.52
1 3 -15 35.07 4.62
-1 3 14 116.51 6.56
-1 3 14 128.18 8.28
1 3 -14 135.52 8.88
1 3 -13 -0.5 1.09
-1 3 13 -0.15 0.67
-1 3 13 0.86 0.88
-1 3 12 -0.11 0.9
-1 3 12 0.66 0.71
1 3 -12 0.46 1.03
-1 3 11 17.14 2.46
-1 3 11 17.36 2.05
1 3 -11 12.31 2.32
1 3 -10 88.81 5.95
-1 3 10 79.95 4.51
-1 3 9 132.06 5.77
1 3 -9 127.92 7.08
-1 3 9 127.75 5.43
-1 3 8 59 3.19
-1 3 8 61.57 3.44
1 3 -8 63.57 4.46
-1 3 7 261.09 8.51
1 3 -7 262.64 10.27
-1 3 7 261.72 8.69
1 3 -6 143.05 6.58
-1 3 6 147.72 5.36
-1 3 6 139.27 5.96
-1 3 6 143.29 5.28
1 -3 -6 143.04 5.1
-1 3 5 204.95 6.84
1 3 -5 198.38 7.88
-1 3 5 193.67 7.22
-1 3 5 209.1 6.63
-1 -3 5 201.44 7.92
1 -3 -5 209.19 6.61
-1 3 4 320.81 9.26
-1 3 4 316.3 9.75
1 -3 -4 324.59 9.45
-1 -3 4 307.73 10.55
1 3 -4 317.75 10.51
-1 -3 3 433.67 13.53
1 -3 -3 439.5 12.43
1 3 -3 447.92 13.41
1 -3 -3 450.72 12.7
-1 3 3 466.99 12.41
1 -3 -2 143.95 5.14
-1 3 2 140.41 4.62
1 3 -2 128.29 5
1 -3 -2 140.88 4.64
-1 3 2 138.33 4.5
-1 -3 2 130.77 5.29
-1 -3 2 137.27 5.33
-1 -3 1 351.31 11.18
1 3 -1 317.64 9.74
-1 3 1 329.81 10.25
-1 3 1 345.54 9.12
-1 3 1 329.63 10.36
1 -3 -1 348.19 9.8
-1 3 1 343.57 9.74
-1 -3 1 370.01 10.95
-1 -3 0 199.3 7.15
-1 3 0 201.24 6.97
1 3 0 199.13 5.99
-1 -3 0 216.2 7.48
-1 -3 0 187.82 6.81
1 -3 0 200.61 6.51
-1 3 0 198.75 6.41
-1 -3 -1 30.11 2.07
1 -3 1 28.6 2
-1 3 -1 31.16 2.24
-1 -3 -1 31.73 2.08
1 3 1 31.76 2.46
-1 3 -1 28.87 1.57
-1 -3 -1 29.23 2.14
1 3 1 29.5 1.34
-1 -3 -1 29.92 2.35
-1 3 -2 21.57 2.06
-1 -3 -2 22.9 1.62
-1 -3 -2 19.53 1.96
1 3 2 25.42 2.24
-1 -3 -2 26.96 1.92
1 3 2 18.3 1.53
-1 3 -2 20.84 1.11
1 3 2 23.04 1.05
-1 -3 -2 23.53 1.81
-1 -3 -3 354.63 11.15
-1 -3 -3 326.03 11.75
-1 3 -3 349.4 12.09
-1 -3 -3 359.71 10.94
1 3 3 371.68 9.8
1 3 3 349.96 10.89
1 3 3 356.36 11.03
1 3 4 66.44 2.04
-1 -3 -4 61.59 3.22
-1 -3 -4 61.76 3.91
-1 -3 -4 60.68 3.44
1 3 4 64.27 3.43
1 3 4 65.89 2.89
-1 3 -4 64.15 4.17
1 3 4 67.56 3.38
1 3 4 61.17 2.73
1 -3 4 65.49 3.98
1 3 5 9.75 1.35
-1 -3 -5 7.84 1.11
-1 3 -5 8.31 1.7
1 3 5 8.3 1.17
-1 -3 -5 5.02 1.24
1 3 5 8.72 0.89
1 3 5 7.46 0.96
1 3 6 5.79 0.72
-1 -3 -6 7.56 1.1
1 3 6 6.57 1.27
-1 3 -6 8.56 1.78
-1 -3 -6 7.18 0.95
1 3 6 6.79 1.03
-1 -3 -7 504.47 14.75
-1 -3 -7 491.81 15.04
1 3 7 519.85 16.15
-1 3 -7 520.11 17.64
1 3 7 506.51 15.53
-1 3 -8 3.77 1.33
-1 -3 -8 3.84 0.84
1 3 8 3.83 1.11
-1 3 -9 90.37 6.1
1 3 9 85.73 5.23
1 -3 9 81.75 3.04
-1 -3 -9 87.35 4.48
-1 3 -10 23.24 3.16
1 3 10 27.11 2.98
-1 -3 -10 21.38 2.22
-1 -3 -11 92.95 5.24
1 -3 11 90.8 5.59
-1 3 -11 99.57 7.02
1 3 11 91.63 5.95
-1 -3 -12 58.07 4.21
1 -3 12 56.59 4.53
1 3 12 52.84 4.65
-1 3 -12 64.84 5.79
-1 3 -13 207.96 11.48
-1 -3 -13 188.1 8.97
1 -3 13 207.41 9.91
1 3 13 210.5 10.48
-1 -3 -14 3.55 1.41
1 -3 14 4.29 1.52
-1 3 -14 5.48 1.91
1 3 14 5.71 1.89
1 3 15 4.53 1.72
-1 -3 -15 2.55 1.16
1 -3 15 3.72 1.21
-1 3 -15 -0.42 1.35
-1 -3 -16 57.13 5.06
1 -3 16 66.45 5.94
-1 -3 -17 85.09 6.42
-1 4 14 28.73 3.79
1 4 -14 28.08 4.1
-1 4 13 169.95 9.52
-1 4 13 171.62 7.97
1 4 -13 187.73 10.58
-1 4 12 172.05 7.7
1 4 -12 168.39 9.76
-1 4 12 173.81 9.18
-1 4 11 76.32 5.49
-1 4 11 76.26 4.47
1 4 -11 71.22 5.81
1 4 -10 58.9 5.03
-1 4 10 67.36 4.82
1 4 -9 229.59 10.56
-1 4 9 246.76 8.64
-1 4 9 232.79 9.81
1 -4 -8 183.84 7.03
-1 4 8 212.01 8.57
1 4 -8 206.46 9.38
-1 4 8 212.57 7.36
-1 4 7 23.53 2.3
-1 4 7 22.4 2.03
1 -4 -7 19.79 1.73
1 4 -7 22.07 2.58
-1 4 7 25.21 1.87
1 -4 -6 65.55 3.29
-1 4 6 64.46 3.58
-1 4 6 69.23 3.09
1 4 -6 58.07 4.11
-1 4 6 59.9 3.6
-1 4 5 20.05 1.85
-1 4 5 21.38 1.51
-1 4 5 18.46 1.76
1 4 -5 22.11 2.26
1 -4 -5 20.6 1.7
-1 -4 4 44.83 3.27
-1 4 4 42.85 2.51
1 -4 -4 43.47 2.57
1 4 -4 44.99 3.08
-1 4 4 40.64 2.12
-1 -4 4 41.4 2.55
1 -4 -4 40.71 2.23
1 -4 -3 10.31 1.24
-1 4 3 9.78 1.28
-1 4 3 9.73 1.02
-1 4 3 9.28 0.94
1 -4 -3 10.33 0.98
-1 -4 3 10.9 1.33
-1 -4 3 12.04 1.59
1 4 -3 7.68 1.19
-1 4 2 35.15 1.92
1 -4 -2 36.57 2.52
-1 4 2 32.45 1.73
-1 -4 2 34.4 2.45
-1 4 2 29.34 2.33
1 4 -2 32.84 2.27
1 -4 -2 33.96 1.92
-1 4 2 30.5 2.33
-1 -4 1 46.65 2.92
-1 4 1 44.66 2.88
-1 -4 1 49.25 3.38
1 4 -1 44.15 2.48
-1 -4 1 43.3 3.33
-1 4 1 41.45 1.81
-1 4 1 45.87 2.72
1 -4 -1 40.57 2.26
1 4 0 119.64 4.34
-1 -4 0 111.34 5.36
1 -4 0 114.07 4.61
-1 -4 0 114.87 5.25
-1 4 0 109.12 4.5
-1 -4 0 117.22 4.99
-1 -4 0 113.62 5.6
-1 4 0 116.77 5.27
-1 -4 -1 1.33 0.25
1 4 1 1.52 0.72
-1 -4 -1 1.82 0.66
-1 -4 -1 0.77 0.68
1 -4 1 1.78 0.66
-1 4 -1 1.15 0.4
-1 -4 -1 0.84 0.39
-1 -4 -1 -0.08 0.55
1 4 2 44.52 3.28
-1 -4 -2 45.13 2.91
-1 -4 -2 42.84 2.76
-1 -4 -2 41.58 2.73
-1 -4 -2 43.04 3.2
1 -4 2 47.74 3.1
-1 4 -2 45.84 2.15
-1 4 -2 47.53 3.21
-1 -4 -3 8.1 1.17
1 4 3 7 1.12
1 4 3 8.81 0.77
-1 -4 -3 6.29 1.36
-1 -4 -3 6.86 1.16
-1 4 -3 8.46 1.56
-1 -4 -4 68.35 3.71
-1 -4 -4 66.42 4.44
1 4 4 66.62 3.51
-1 -4 -4 62.38 3.77
1 4 4 66.19 3.66
-1 4 -4 64.19 4.37
1 4 4 78.65 3.05
1 4 5 23.99 2.18
-1 -4 -5 20.76 1.96
-1 4 -5 25.44 2.78
1 4 5 26.53 1.84
-1 -4 -5 23.52 2.69
1 4 5 24.47 1.9
-1 -4 -6 75.9 4.05
1 4 6 71.08 3.47
1 4 6 71.41 4.21
1 4 6 76.7 3.72
-1 4 -6 72.09 4.99
1 4 6 74.43 2.5
-1 -4 -7 188.59 7.61
-1 4 -7 196.23 9.38
1 4 7 210.38 6.23
1 4 7 203.25 6.94
1 4 7 186.73 7.46
1 4 7 209.19 8.47
1 4 8 28.19 2.78
1 4 8 22.14 1.74
-1 4 -8 21.76 2.95
-1 -4 -8 24.78 2.3
1 4 8 25.61 1.71
1 4 9 14.52 1.34
1 4 9 16.53 2.26
-1 4 -9 16.84 2.76
1 4 10 43.41 3.9
-1 4 -10 55.16 5.06
1 4 10 48.84 2.74
-1 4 -11 18.64 3.16
1 -4 11 21.93 2.54
1 4 11 20.24 2.8
1 4 12 34.55 3.83
-1 4 -12 34.11 4.39
1 -4 12 25.95 2.97
1 -4 13 27.99 3.3
1 4 13 37.16 4.18
-1 4 -13 33.68 4.41
-1 4 -14 34.25 4.66
1 4 14 26.34 3.7
1 -4 14 36.49 3.89
1 -4 15 -0.45 1.03
-1 5 14 9.03 2.25
1 5 -14 6.3 2.16
1 5 -13 22.52 3.52
-1 5 13 17.19 2.83
-1 5 12 27.41 3.41
1 5 -12 29.65 3.88
-1 5 11 35.14 3.67
1 5 -11 34.99 4.16
-1 5 10 32.31 3.29
-1 5 10 35.41 2.6
1 5 -10 28.68 3.57
-1 5 9 3.36 0.82
1 5 -9 3.31 1.27
1 -5 -9 4.4 0.93
-1 5 9 4.96 1.25
1 -5 -8 213.43 8.15
-1 5 8 234.42 9.28
-1 -5 8 230.11 7.47
1 5 -8 219.26 10.13
-1 5 8 224.96 7.64
-1 5 7 277.13 10.14
-1 5 7 271.05 8.62
1 5 -7 267.67 11.17
1 -5 -7 278.09 9.57
-1 -5 7 279.16 8.81
-1 5 6 20.29 2.11
-1 5 6 20.28 2.03
-1 5 6 19.85 1.5
1 -5 -6 20.5 1.94
-1 -5 6 20.47 1.68
1 5 -6 19.24 2.34
-1 5 5 0.15 0.31
-1 5 5 -0.07 0.44
1 -5 -5 1.44 0.76
-1 5 5 0.48 0.57
-1 -5 5 0.51 0.4
1 5 -5 -0.02 0.74
-1 5 4 347.97 11.41
-1 -5 4 347.66 10.59
-1 5 4 318.69 9.67
1 -5 -4 317.95 10.83
-1 5 4 332.15 10.34
1 -5 -4 323.82 9.81
1 5 -4 317.23 11.43
-1 5 3 141.59 5.17
-1 5 3 144 5.01
-1 5 3 143.65 6.35
1 5 -3 137.5 6.1
1 -5 -3 139.57 6.07
1 -5 -3 143.19 5.07
-1 -5 3 136.67 5.67
-1 5 2 25.74 2.4
-1 -5 2 16.97 1.78
1 -5 -2 23.35 1.66
-1 -5 2 22.48 2.59
1 -5 -2 23.29 2.25
-1 5 2 21.52 1.47
1 5 -2 21.01 1.92
-1 5 1 2.26 1.05
1 -5 -1 5.55 0.87
-1 -5 1 4.24 1.21
-1 5 1 6.2 1.05
1 -5 -1 3 0.9
-1 -5 1 2.19 0.73
1 5 -1 4.31 0.89
-1 -5 1 6.1 1.19
-1 -5 0 306.46 10.86
-1 -5 0 286.96 10.27
-1 5 0 313.3 11.28
1 -5 0 316.98 10.22
-1 -5 0 317.76 11.47
-1 5 0 313.61 10.17
1 5 0 318.68 9.75
-1 5 -1 0.22 0.38
-1 -5 -1 0.01 0.54
1 5 1 0.07 0.42
1 -5 1 0.15 0.51
-1 -5 -1 0.24 0.18
-1 -5 -1 0.37 0.63
-1 -5 -1 0.82 0.85
-1 5 -1 0.29 0.82
-1 5 -2 312.39 11.22
-1 -5 -2 309.72 11.02
1 -5 2 324.54 11.16
-1 -5 -2 303.43 11.46
-1 5 -2 311.15 9.55
-1 -5 -2 303.08 10.57
-1 5 -3 171.9 7.99
-1 -5 -3 196.02 7.8
-1 -5 -3 176.32 7.42
1 5 3 198.12 6.02
-1 -5 -3 183.71 8.42
1 5 4 326.13 11.22
-1 5 -4 357.61 12.8
-1 -5 -4 309.78 12.53
1 5 4 344.19 9.97
-1 -5 -4 336.65 11.62
-1 -5 -5 3.94 1.11
1 5 5 3.49 0.99
1 5 5 5.72 0.87
-1 5 -5 3.75 1.3
1 5 6 420.96 13.25
-1 5 -6 421.96 15.35
-1 -5 -6 424.71 13.73
1 5 6 404.07 12.61
1 5 6 409.45 13.89
-1 -5 -7 61.8 3.98
-1 5 -7 64.24 4.99
1 5 7 66.01 3.72
1 5 7 65.55 4.32
1 5 7 68.67 3.77
1 5 8 79.97 5.16
1 5 8 88.07 2.93
1 5 8 91.71 4.47
-1 5 -8 94.5 6.26
-1 -5 -8 83.53 4.81
1 5 9 5.44 1.47
-1 -5 -9 6.04 1.35
1 5 9 5.31 1.06
-1 5 -9 5.43 1.76
1 -5 10 286.21 10.59
1 5 10 261.79 11.54
-1 5 -10 273.85 12.85
1 5 11 2.2 1.11
1 -5 11 2.48 0.97
-1 5 -11 2.71 1.55
1 5 12 10.87 2.32
-1 5 -12 10.5 2.6
1 5 13 102.26 7.28
-1 5 -13 99.72 7.89
1 5 14 188.23 10.78
1 6 -13 40.52 4.9
-1 6 13 34.89 4.1
-1 6 12 91.4 6.54
1 6 -12 97.06 7.48
-1 6 11 81.49 5.82
1 6 -11 78.26 6.41
-1 6 11 82.18 5.15
-1 6 10 259.91 11.14
-1 6 10 256.44 10.52
1 6 -10 277.47 12.61
1 -6 -9 30.78 2.68
-1 6 9 37.05 3.39
-1 6 9 30.62 2.96
1 6 -9 29.28 3.55
-1 6 8 8.28 1.61
-1 6 8 6.04 1.34
1 -6 -8 6.04 1.19
1 6 -8 7.15 1.72
1 -6 -7 150.22 6.64
-1 6 7 149.16 7.05
-1 6 7 150.98 5.31
-1 6 7 142.06 6.67
1 6 -7 146.86 7.77
-1 6 6 304.04 9.14
-1 6 6 287.67 10.48
1 -6 -6 289.2 10.72
1 6 -6 315.35 12.11
-1 -6 6 307.17 9.48
-1 6 6 312.52 11.38
-1 6 5 19.17 1.42
-1 -6 5 15.51 1.54
-1 6 5 18.79 1.83
1 -6 -5 14.83 1.83
1 6 -5 17.03 2.21
-1 6 5 17.91 2.21
-1 6 4 284.85 9.49
-1 6 4 303.99 11.18
1 -6 -4 283.18 10.52
-1 -6 4 300.2 9.7
1 6 -4 301.01 10.94
1 -6 -4 275.38 8.82
-1 6 3 455.05 13.1
-1 6 3 453.73 15.19
-1 -6 3 416.25 16.05
1 -6 -3 437.19 14.77
1 6 -3 456.88 14.54
1 -6 -3 439.67 12.79
-1 -6 3 435.52 13.76
-1 -6 2 572.29 17.46
-1 6 2 559.07 18.59
1 -6 -2 581.01 16.43
1 6 -2 600.43 17.54
1 -6 -2 608.33 18.65
-1 -6 2 553.98 19.47
-1 -6 2 564.05 17.39
-1 6 1 1.12 0.9
1 6 -1 1.87 0.68
-1 -6 1 -0.22 0.55
1 -6 -1 -0.33 0.96
1 -6 -1 -0.02 0.48
-1 -6 1 -0.69 1
-1 -6 1 -0.21 0.58
-1 -6 0 370.93 12.8
-1 -6 0 410.07 13.8
1 -6 0 390.68 14.46
-1 -6 0 413.46 14.64
-1 -6 0 390.83 11.78
1 6 0 433.15 12.56
1 -6 0 410.06 12.95
-1 -6 -1 287.57 10.75
-1 -6 -1 335.24 12.31
-1 6 -1 340.58 11.84
-1 -6 -1 329.08 12.01
1 -6 1 302.47 11.15
1 6 1 340.5 10.21
-1 -6 -1 326.74 8.84
-1 6 -1 300.57 10.53
-1 6 -2 209.53 7.62
-1 -6 -2 236.57 9.44
-1 -6 -2 206.43 8.36
-1 -6 -2 215.65 9.43
1 6 2 227.81 7.34
-1 6 -2 228.16 9.26
-1 -6 -3 33.76 3.32
-1 -6 -3 28.14 2.81
-1 6 -3 27.62 2.97
1 6 3 35.32 1.98
1 6 4 202.14 6.73
-1 6 -4 215.28 9.35
-1 -6 -4 193.09 8.46
1 6 5 152.95 6.95
-1 -6 -5 152.72 7.21
-1 6 -5 160.47 8.04
1 -6 5 156.31 4.72
1 6 5 155.33 5.74
1 6 6 1.01 0.68
-1 -6 -6 0.85 0.8
-1 6 -6 -0.02 0.91
-1 -6 -7 77.05 4.8
-1 6 -7 73.63 5.42
1 6 7 69.45 4.71
-1 -6 -8 329.23 12.35
1 6 8 340.79 12.97
-1 6 -8 339.95 14.08
1 6 9 201.79 9.4
-1 -6 -9 185.71 8.51
-1 6 -9 207.33 10.46
1 6 10 1.35 0.98
-1 6 -10 1.39 1.27
-1 -6 -10 3.05 1.18
-1 6 -11 38.02 4.53
1 6 11 40.75 4.19
-1 6 -12 171.22 10.46
1 6 12 174.58 9.74
1 6 13 35.2 4.33
-1 7 12 3.57 1.5
1 7 -12 4.22 1.78
-1 7 11 0.23 0.93
1 7 -11 0.69 1.22
1 7 -10 56.57 5.22
-1 7 10 57.06 4.51
-1 7 10 53.19 4.46
-1 7 9 33.95 3.45
-1 7 9 28.22 3.07
1 -7 -9 30.62 2.94
1 7 -9 35.13 3.92
-1 7 8 98.83 5.99
-1 7 8 91.96 5.44
1 7 -8 97.75 6.48
1 -7 -8 85.65 5.21
1 -7 -7 1.45 0.97
-1 7 7 0.92 0.91
-1 7 7 -0.52 0.75
1 7 -7 -0.28 1.06
-1 7 6 67.24 4.04
1 7 -6 65.12 4.83
-1 7 6 61.64 4.68
1 -7 -6 69.96 4.56
-1 7 5 34.63 3.4
1 -7 -5 33.2 3.12
-1 7 5 31.33 2.52
1 7 -5 32.39 3.17
1 7 -4 137.41 6.75
1 -7 -4 119.69 6.6
-1 -7 4 133.43 8.11
-1 7 4 141 7.46
-1 -7 4 145.63 6.01
-1 -7 3 -0.09 1.21
1 -7 -3 -0.33 0.78
-1 7 3 1.19 0.96
1 7 -3 0.23 0.58
-1 -7 3 -0.22 0.5
1 7 -2 32.4 2.73
1 -7 -2 35.24 3.38
-1 -7 2 30.16 3.59
-1 -7 2 32.78 2.8
-1 -7 1 29.08 3.32
1 -7 -1 24.86 2.87
1 7 -1 26.58 2.28
-1 -7 1 20.04 2.32
-1 -7 0 82.31 5.05
-1 -7 0 80 5.64
1 7 0 84.59 4.25
-1 7 0 83.93 5.06
1 -7 0 85.36 5.79
1 -7 1 5.47 1.65
1 7 1 5.65 1.02
-1 -7 -1 7.59 1.7
-1 7 -1 3.09 1.14
-1 -7 -1 3.57 1.07
-1 7 -2 80.73 5.21
-1 -7 -2 78.41 5.33
1 7 2 78.06 3.77
-1 -7 -3 93.78 5.85
-1 7 -3 101.23 6.01
1 7 3 95.37 4.16
-1 -7 -4 118.06 6.55
-1 7 -4 111.54 6.6
-1 -7 -5 16.51 2.37
-1 7 -5 23.71 2.93
-1 -7 -6 138.24 7.19
-1 7 -6 128.46 7.55
-1 -7 -7 46.18 3.95
-1 7 -7 48.21 4.49
1 7 7 53.5 4.19
-1 7 -8 2.86 1.52
1 7 8 3.25 1.25
-1 -7 -8 2.36 1.02
-1 7 -9 13.66 2.6
1 7 9 15.51 2.5
-1 -7 -9 17.05 2.38
-1 -7 -10 69.87 5.06
-1 7 -10 79.33 6.45
1 7 10 80.48 5.92
-1 7 -11 12.34 2.62
1 7 11 10.08 2.25
1 7 12 75.87 6.29
1 8 -11 8.99 2.12
1 8 -10 108.6 7.58
-1 8 9 3.17 1.36
1 8 -9 4.07 1.56
1 8 -8 96.2 6.59
-1 8 8 96.07 6.53
1 -8 -8 87.64 5.69
1 -8 -7 17.75 2.43
-1 8 7 22.76 3.07
1 8 -7 19.77 2.81
1 -8 -6 43.03 3.87
-1 -8 6 56.82 5.49
1 8 -6 43.64 4.02
-1 8 6 56.31 4.82
-1 8 5 3.46 1.49
1 -8 -5 4.36 1.37
-1 -8 5 3.22 1.65
1 8 -5 6.1 1.49
-1 -8 4 8.54 2.21
1 -8 -4 4.47 1.3
1 8 -4 7.48 1.56
-1 -8 3 28.94 3.66
1 -8 -3 23.09 2.99
-1 -8 2 131.49 8.17
1 -8 -2 128.56 7.47
1 -8 -1 11.18 2.24
-1 -8 1 9.72 2.1
-1 8 1 7.82 1.61
-1 -8 0 27.56 3.5
-1 8 0 31.79 3.17
1 -8 0 21.22 3.07
-1 8 -1 36.53 3.52
-1 -8 -1 38.88 4.01
1 -8 1 41.53 4.33
-1 -8 -2 47.87 4.37
1 -8 2 46.68 4.63
-1 8 -2 43 3.94
-1 -8 -3 7.82 1.85
-1 8 -3 6.64 1.64
-1 -8 -4 9.15 1.96
-1 8 -4 8.9 1.94
-1 -8 -5 22.48 2.94
-1 8 -5 23.73 3.07
-1 -8 -6 30.05 3.41
-1 8 -6 34.67 3.82
-1 -8 -7 1.5 1.12
-1 8 -7 0.59 0.95
-1 8 -8 34.95 4.01
-1 -8 -8 25.9 3.23
-1 8 -9 11.03 2.34
-1 -8 -9 13.29 2.35
1 8 9 12.88 2.31
-1 -8 -10 36.76 3.85
1 8 10 38.35 4.06
-1 8 -10 44.46 4.87
-1 -8 -11 6.87 1.75
1 8 11 9.57 2.26
1 -9 -7 0.78 0.82
1 -9 -6 -0.52 1.03
1 -9 -5 44.84 4.43
-1 -9 5 43.45 5.04
1 -9 -4 167.69 9.17
-1 -9 4 172.39 10.36
1 -9 -3 0.29 0.98
-1 -9 3 0.77 1.2
1 -9 -2 15.83 2.7
-1 -9 2 8.13 2.26
-1 -9 1 28.38 3.87
1 -9 -1 29.09 3.68
-1 -9 0 89.14 6.83
1 -9 0 107.52 7.28
1 -9 1 17.75 3.05
-1 -9 -1 18.61 3.05
-1 -9 -2 119.84 8.02
1 -9 2 156.66 9.29
-1 9 -3 34.45 3.73
1 -9 3 36.81 4.45
-1 -9 -3 32.1 3.93
1 -9 4 101.52 7.68
-1 -9 -4 99.78 7.04
-1 9 -4 104.87 6.78
-1 9 -5 0.29 0.86
-1 -9 -5 -0.37 0.96
-1 -9 -6 131.86 8.21
-1 9 -6 140.24 8.32
-1 9 -7 32.66 3.96
-1 -9 -7 36.87 4.08
-1 9 -8 25.91 3.57
-1 -9 -8 28.45 3.66
1 -10 -5 3.22 1.56
1 -10 -4 146.17 8.94
1 -10 -3 1.81 1.37
1 -10 -2 206.67 11.1
1 -10 -1 4.29 1.71
1 -10 0 135.72 8.88
2 0 -16 134.26 8.69
2 0 -15 0.8 1.29
2 0 -14 38.46 4.09
2 0 -13 1.3 0.94
2 0 -12 315.12 12.66
2 0 -11 -1.12 0.97
2 0 -10 121.93 6.38
2 0 -9 0.97 0.88
2 0 -8 148.03 6.6
2 0 -7 0.34 0.72
2 0 -6 670.81 19.35
2 0 -5 0.12 0.47
-2 0 4 209.86 7.16
-2 0 3 0.16 0.48
-2 0 3 1.21 0.22
-2 0 2 843.47 21.09
2 0 -2 835.38 21.21
-2 0 2 862.91 22.28
2 0 -1 0.38 0.26
-2 0 1 0.61 0.44
-2 0 1 0.21 0.17
-2 0 0 40.4 2
2 0 0 39.73 1.63
2 0 1 0.68 0.28
-2 0 -1 -0.03 0.38
2 0 2 289.07 8.73
-2 0 -2 297.65 8.92
-2 0 -2 309.86 8.9
-2 0 -3 1.77 0.57
2 0 3 1.31 0.47
-2 0 -3 0.51 0.66
-2 0 -3 -0.34 0.57
2 0 3 1.49 0.58
-2 0 -3 0.69 0.25
2 0 4 5.6 1.17
-2 0 -4 2.8 0.64
-2 0 -4 2.48 0.95
2 0 4 2.77 0.74
-2 0 -4 5.58 0.98
-2 0 -5 1.43 0.52
2 0 5 1.07 0.32
2 0 5 0.73 0.56
-2 0 -5 1.42 0.65
2 0 5 1.61 0.8
-2 0 -5 2.11 0.94
2 0 6 651.4 17.83
-2 0 -6 700.15 19.11
2 0 6 694.58 19.9
2 0 6 650.94 19.53
2 0 6 708.77 20.76
-2 0 -6 668.41 20.17
-2 0 -7 0.54 0.73
2 0 7 0.58 0.39
-2 0 -7 0.04 0.43
2 0 7 0.83 0.71
-2 0 -8 218.79 9.16
2 0 8 227.95 8.98
2 0 8 220.13 8.88
2 0 9 0.79 0.86
-2 0 -9 0.34 0.79
2 0 10 424.13 15.09
-2 0 -10 431.54 15.52
2 0 11 0.49 1.03
-2 0 -11 0.54 0.91
2 0 12 136.7 7.72
-2 0 -12 150.69 8.29
-2 0 -13 0.74 0.9
2 0 13 -0.91 1.04
-2 0 -14 93.74 6.85
2 0 14 88.82 6.61
2 0 15 -0.03 1.09
-2 0 -15 0.28 1.32
2 0 16 199.81 11.37
-2 0 -16 225.26 12.13
-2 1 16 81.06 6.04
2 1 -15 4.38 1.58
2 -1 -15 3.4 1.45
2 1 -14 23.75 3.25
2 -1 -14 21.1 3
2 -1 -13 101.33 6.43
2 1 -13 103.46 6.74
2 1 -12 33.65 3.51
2 -1 -12 30.7 3.25
2 -1 -11 0.43 0.68
-2 1 11 0.28 0.37
2 1 -11 0.31 0.79
2 -1 -10 210.88 8.8
-2 1 10 201.66 6.83
2 1 -10 201.99 8.94
-2 1 9 287.75 8.7
2 1 -9 269.59 10.71
2 -1 -9 292.29 10.7
-2 1 8 40.57 2.03
2 -1 -8 35.96 2.92
2 1 -8 41.21 3.16
-2 1 7 30.57 1.57
-2 1 7 26.37 2.28
2 1 -7 29.68 2.5
-2 -1 6 396.82 12.4
-2 1 6 386.03 11.99
-2 1 6 372.62 10.12
2 1 -6 376.91 12.12
-2 -1 5 174.57 6.54
-2 1 5 169.69 4.69
2 1 -5 164.61 6.39
-2 1 5 180.44 6.4
-2 1 4 233.53 7.59
-2 -1 4 234.77 7.69
2 1 -4 221.22 7.6
-2 -1 3 11.47 1.26
-2 -1 3 10.49 1
2 1 -3 10.36 1.08
-2 1 3 9.45 1.06
-2 -1 3 8.21 0.95
-2 1 2 272.76 7.96
-2 -1 2 250.3 7.59
-2 -1 2 258.04 7.92
-2 -1 2 254.14 7.47
-2 -1 1 125.11 4.07
2 1 -1 126.79 4.23
-2 -1 1 127.25 4.16
-2 -1 1 130.12 4.36
2 1 -1 124.29 4.31
-2 1 1 134.08 4.59
-2 -1 0 706.26 18.03
2 1 0 669.06 17.98
-2 -1 0 690.76 17.98
2 1 0 692.91 17.93
-2 1 0 655.9 18.36
2 1 1 44.14 1.9
-2 -1 -1 43.5 2.05
-2 1 -1 40.48 2.19
-2 -1 -1 38.3 1.88
-2 -1 -2 15.74 1.22
-2 -1 -2 15.28 1.76
-2 1 -2 15.52 1.12
-2 1 -2 12.7 1.01
-2 -1 -2 14.62 1.37
-2 -1 -2 15.37 1.14
-2 -1 -2 14.73 1.26
2 1 2 14.2 1.02
-2 -1 -3 60.51 3.01
-2 -1 -3 54.33 3.46
2 1 3 57.15 2.49
-2 1 -3 57.38 2.6
-2 1 -3 56.94 2.52
-2 -1 -3 53.11 2.73
-2 1 -3 58.48 3.57
2 -1 3 63.82 2.87
2 1 4 581.66 17.93
-2 1 -4 684.6 17.45
-2 -1 -4 658.47 18.03
-2 -1 -4 656.72 17.77
-2 -1 -4 644.34 18.81
2 -1 4 628.14 17.2
-2 1 -4 643 17.44
2 1 4 612.86 17.26
2 -1 4 646.58 17.73
-2 1 -4 585.16 19.25
-2 -1 -5 0 0.72
-2 1 -5 0.12 0.31
-2 -1 -5 0.78 0.54
-2 1 -5 0.83 0.91
2 1 5 1.36 0.6
2 -1 5 0.17 0.5
2 1 5 0.45 0.62
2 -1 5 1.57 0.48
2 -1 5 0.1 0.53
-2 -1 -5 0.19 0.4
2 -1 6 154.74 5.77
2 -1 6 162.37 6.31
2 1 6 141.12 6.82
-2 1 -6 156.37 7.34
-2 1 -6 152.67 5.34
-2 -1 -6 160.61 6.56
2 1 6 146.98 6.59
-2 -1 -6 151.28 6.11
2 1 7 51.44 1.97
2 -1 7 57.8 3.16
-2 -1 -7 52.57 3.42
-2 -1 -7 46.86 3.18
-2 1 -7 50.46 4
2 1 7 48.21 3.6
2 -1 8 221.15 8.19
2 -1 8 213.35 8.07
-2 1 -8 221.03 9.79
2 -1 8 227.12 8.79
-2 -1 -8 212.89 8.53
-2 -1 -8 226.54 8.68
2 1 8 235.57 9.16
2 -1 9 17.06 2.17
-2 -1 -9 15.01 1.94
2 1 9 16.96 2.23
-2 1 -9 18.99 2.61
2 -1 9 18.56 1.94
2 -1 9 20.39 2.09
2 -1 10 391.3 13.07
-2 1 -10 390.93 15.15
2 -1 10 389.52 14.03
2 1 10 393.43 14.35
-2 -1 -10 381.51 13.81
2 -1 10 399.21 13.35
2 1 11 0.86 0.94
2 -1 11 -0.91 0.92
-2 -1 -11 0.73 0.82
-2 1 -11 1.92 1.32
2 -1 12 124.8 7.19
2 1 12 133.96 7.62
-2 1 -12 121.42 7.88
-2 -1 -12 121.79 6.98
2 1 13 39.78 4.12
-2 -1 -13 40.47 3.97
2 -1 13 38.36 3.92
-2 1 -13 36.33 4.34
-2 -1 -14 215.38 10.89
2 1 14 252.64 11.97
2 -1 14 240.36 11.56
-2 1 -14 245.85 12.67
2 1 15 16.64 2.96
-2 -1 -15 11.85 2.45
-2 1 -15 10.32 2.66
2 -1 15 15.99 2.82
2 -1 16 9.43 2.44
-2 1 -16 6.45 2.16
-2 -1 -16 4.23 1.55
-2 2 16 120.14 7.31
-2 2 15 26.51 3.19
2 2 -15 29.59 3.98
-2 2 14 57.89 4.58
2 2 -14 53.1 5.08
2 2 -13 35.7 3.97
-2 2 13 40.91 3.64
-2 2 12 360.2 13.51
2 2 -12 403.16 15.24
2 2 -11 11.41 2.2
-2 2 11 10.52 1.78
-2 2 10 150.35 6.97
-2 2 10 157.3 5.71
2 2 -10 153.72 7.81
-2 2 9 19.37 1.48
-2 2 9 20.74 2.19
2 2 -9 17.56 2.28
-2 2 8 216.76 8.23
-2 2 8 215.25 6.73
2 2 -8 211.81 8.84
-2 2 7 5.39 1.09
2 2 -7 4.92 1.1
-2 2 7 6.04 0.67
-2 2 6 7.59 0.69
-2 2 6 8.96 1.24
2 2 -6 9.09 1.4
-2 2 5 78.18 3.95
-2 2 5 76.39 3.62
2 2 -5 73.57 3.86
-2 -2 5 77.05 3.95
2 -2 -4 134.02 5.2
2 -2 -4 139.4 4.01
-2 -2 4 135.21 5.38
-2 2 4 139.99 5.18
2 2 -4 135.94 5.36
-2 2 3 11.85 1.17
2 -2 -3 11.35 0.72
-2 -2 3 11.4 1.32
2 2 -3 9.23 1.02
-2 -2 3 11.37 1.13
2 -2 -3 10.67 1.12
-2 2 2 45.96 2.41
2 -2 -2 45.8 2.43
-2 -2 2 45.92 2.2
2 2 -2 40.89 2.09
-2 -2 2 49.28 2.63
-2 -2 1 131.43 4.48
2 -2 -1 127.18 4.75
-2 -2 1 127.42 4.79
2 2 -1 130.61 4.92
-2 -2 1 125.71 4.11
-2 2 1 141.86 4.9
-2 -2 0 378.55 11.19
-2 -2 0 397.4 10.59
-2 2 0 391.25 11.33
-2 -2 0 381.18 10.03
-2 -2 -1 7.59 0.68
-2 2 -1 6.11 0.93
-2 -2 -1 10.2 1.63
-2 -2 -1 6.69 1.05
-2 2 -1 7.17 0.63
-2 -2 -1 8.3 1.01
2 2 1 7.65 0.65
-2 2 -1 8.31 1.09
-2 -2 -2 1.52 0.38
-2 -2 -2 2.26 0.72
-2 2 -2 3.99 0.46
-2 -2 -2 3.54 0.73
2 2 2 2.16 0.36
-2 -2 -2 2.01 0.27
-2 2 -2 3.66 0.8
-2 -2 -2 1.54 0.86
2 -2 3 30.86 1.76
-2 -2 -3 28.95 1.38
-2 2 -3 31.1 2.12
-2 -2 -3 29.25 1.29
-2 -2 -3 29.03 1.98
2 2 3 31.26 1.46
-2 -2 -3 28.37 2.18
-2 -2 -3 26.11 2.57
-2 2 -3 28.75 2.56
2 -2 4 71.26 3.12
-2 -2 -4 61.75 3.15
2 2 4 64.95 3.06
2 -2 4 69.06 3.46
-2 -2 -4 68.8 2.74
-2 -2 -4 63.43 3.55
2 2 4 64.96 2.61
-2 -2 -4 67.4 4.18
-2 2 -4 62.39 4.24
-2 2 -4 66.54 2.57
-2 -2 -5 27.3 2.03
2 -2 5 26.35 2.14
2 2 5 25.96 1.65
-2 2 -5 26.54 1.32
-2 -2 -5 27.88 2.61
2 2 5 27.93 2.08
-2 -2 -5 27.33 1.76
-2 2 -5 24.32 2.7
2 -2 5 28.29 1.97
2 -2 6 39.56 2.83
-2 2 -6 38.17 3.58
2 -2 6 43.45 2.75
2 2 6 44.99 2.96
-2 -2 -6 42.47 3.28
-2 -2 -6 44.28 2.56
2 2 7 17.78 1.99
2 -2 7 23.48 2.23
-2 -2 -7 24.77 2.57
2 -2 7 21.72 2.03
-2 2 -7 25.36 2.97
2 2 7 21.6 2.27
-2 -2 -7 21.71 1.88
-2 2 -8 0.31 0.92
2 -2 8 1.44 0.82
-2 -2 -8 -0.24 0.79
-2 -2 -8 2.34 0.7
2 2 8 1.7 0.77
2 2 9 0.52 0.64
-2 2 -9 1.69 1.16
2 -2 9 3.47 1.08
-2 -2 -9 0.81 0.73
2 2 10 0.89 0.85
-2 -2 -10 -0.24 0.7
-2 2 -10 0.48 1.06
2 -2 10 1.45 0.97
-2 -2 -11 6.02 1.35
-2 2 -11 10.86 2.32
2 2 11 6.28 1.69
2 -2 11 7.83 1.61
2 2 12 3.69 1.45
-2 -2 -12 2.2 1.12
2 -2 12 1.95 1.18
-2 2 -12 2.67 1.42
2 2 13 0.54 0.88
-2 2 -13 0.65 1.38
2 -2 13 0.47 0.87
-2 -2 -13 0.51 0.87
2 -2 14 18.28 2.84
2 2 14 15.75 2.83
-2 -2 -14 12.82 2.24
-2 2 -14 12.02 2.9
2 -2 15 2.2 1.24
2 2 15 1.09 1.13
-2 -2 -15 0.04 0.8
-2 2 -15 2.89 1.99
-2 -2 -16 39.95 4.27
2 -2 16 40.78 4.69
-2 -2 -17 12.93 2.59
-2 3 16 102.32 6.59
-2 3 15 8.13 2.23
-2 3 15 4.78 1.49
2 3 -15 8.65 2.45
-2 3 14 42.04 3.9
2 3 -14 50.6 5.18
-2 3 13 1.67 1.04
2 3 -13 -0.52 1.22
-2 3 12 53.84 4.09
2 3 -12 62.75 5.26
-2 3 11 6.63 1.48
2 3 -11 6.42 1.6
2 3 -10 200.14 9.46
-2 3 10 190.57 6.93
-2 3 10 214.5 8.47
-2 3 9 4.09 0.76
-2 3 9 4.39 1.11
2 3 -9 2.23 1.06
-2 3 8 0.41 0.34
-2 3 8 1.81 0.85
2 3 -8 0.83 0.92
-2 3 7 180.68 6.19
2 3 -7 181.74 7.88
-2 3 7 187.48 7.05
2 -3 -6 572.84 15.09
-2 3 6 539.02 16.28
2 3 -6 563.85 17.33
2 -3 -5 2.67 0.46
2 3 -5 1.61 0.77
-2 3 5 3.22 0.7
-2 -3 5 2.76 0.81
2 -3 -4 144.02 4.86
2 3 -4 160.82 5.98
2 -3 -4 142.17 5.57
-2 3 4 155.19 5.57
-2 -3 4 148.02 5.91
2 3 -3 196.59 6.77
-2 -3 3 190.03 7.67
2 -3 -3 199.29 6.82
2 -3 -3 204.89 6.38
-2 3 3 204.65 6.8
-2 -3 3 195.39 6.88
-2 -3 2 203.49 7.61
2 -3 -2 201.76 6.92
-2 3 2 212.45 6.94
2 3 -2 200.98 6.48
-2 -3 2 202.68 6.61
2 -3 -1 143.91 5.39
2 3 -1 143.73 4.52
-2 -3 1 151.59 5.91
-2 3 1 151.51 5.43
-2 -3 1 138.38 4.69
-2 -3 1 143.52 4.98
-2 -3 0 262.25 9
-2 3 0 283.11 9.06
-2 3 0 291.7 8.85
-2 -3 0 268.65 7.75
-2 -3 0 265.73 7.44
-2 -3 0 279.6 10.16
2 -3 0 276.21 8.86
-2 -3 -1 73.85 2.51
-2 -3 -1 73.04 3.62
-2 -3 -1 70.62 3.95
-2 -3 -1 78.2 4.57
-2 3 -1 64.23 3.52
2 -3 1 71.37 3.64
-2 -3 -2 40.13 2.47
-2 3 -2 43.6 2.8
-2 -3 -2 40.56 2.57
-2 -3 -2 39.71 2.83
2 -3 2 47.3 2.98
-2 -3 -2 39.78 3.25
-2 -3 -2 38.83 1.55
-2 -3 -3 369.14 11.77
-2 3 -3 347.29 11.46
-2 -3 -3 356.17 11.08
-2 -3 -3 362.99 10.14
2 -3 3 366.88 11.67
-2 -3 -3 333.71 12.39
2 -3 3 373.67 12.03
2 3 3 338.06 9.04
-2 3 -3 361.68 12.37
2 3 4 296.57 8.98
-2 -3 -4 302.25 10.1
2 -3 4 314.25 10.81
-2 -3 -4 321.56 8.49
2 -3 4 315.72 9.2
-2 -3 -4 288.12 11.41
2 3 4 312.17 10.59
-2 3 -4 308.44 11.68
2 3 4 317.5 8.35
2 -3 5 95.37 3.96
-2 -3 -5 101.51 4.59
-2 -3 -5 98.34 5.58
2 3 5 93.44 4.85
-2 3 -5 82.12 5.45
-2 -3 -5 100.65 3.51
2 3 5 95.38 3.26
2 3 5 91.57 3.96
2 3 6 12.64 1.46
-2 3 -6 11.25 2.08
-2 -3 -6 11.81 1.45
2 -3 6 10.25 1.24
2 3 6 12.81 1.07
-2 -3 -6 13.85 1.21
2 3 6 12.68 1.76
-2 -3 -6 12.32 2.03
-2 3 -7 423.36 15.64
2 3 7 420.72 14.13
2 -3 7 402.91 12.88
-2 -3 -7 422.16 12.31
-2 -3 -7 428.52 15.07
2 3 7 381.9 13.05
-2 3 -8 146.56 8.06
-2 -3 -8 137.93 7.3
2 3 8 134.78 6.82
-2 -3 -8 139.99 5.63
2 -3 8 131.94 6.02
2 3 8 125.97 6.22
-2 3 -9 3.71 1.63
2 3 9 4.62 1.35
2 -3 9 3.99 1.15
-2 -3 -9 4.55 1.01
2 -3 10 294.62 11.53
2 3 10 326.81 12.79
-2 -3 -10 313.96 10.99
-2 3 -10 310.33 13.85
2 -3 11 262.51 10.83
2 3 11 265.59 11.63
-2 3 -11 268.2 12.86
-2 -3 -11 258.08 10
2 -3 12 6.65 1.63
2 3 12 4.53 1.52
-2 -3 -12 6.84 1.43
-2 3 -12 3.12 1.58
2 3 13 5.82 1.62
-2 -3 -13 3.77 1.24
2 -3 13 4.01 1.54
-2 3 -13 5.74 2.24
2 -3 14 121.3 7.59
2 3 14 126.67 8.3
-2 3 -14 130.95 9.35
-2 -3 -14 104.96 6.55
-2 -3 -15 59.91 4.91
-2 3 -15 62.63 6.63
2 -3 16 0.25 0.99
-2 4 14 23.69 2.88
2 4 -14 28.76 4.1
-2 4 14 31.53 4.03
-2 4 13 126.74 6.78
-2 4 13 114.14 7.72
2 4 -13 119.66 8.18
-2 4 12 118.07 6.38
-2 4 12 122.94 7.54
2 4 -12 119.77 7.84
-2 4 11 49.05 3.7
2 4 -11 42.93 4.35
-2 4 10 105.16 5.47
2 4 -10 102.21 6.61
-2 4 9 231.7 8.59
2 4 -9 227.06 10.06
-2 4 8 5.49 1.12
2 4 -8 5.18 1.42
2 -4 -7 14.34 1.3
-2 4 7 16.79 1.68
-2 4 6 489.76 14.7
2 -4 -6 507.93 14.18
2 4 -6 492.23 16.14
-2 4 5 218.36 7.34
2 -4 -5 209.34 6.96
2 4 -5 194.7 7.96
-2 -4 5 207.89 8.31
-2 -4 4 11.27 1.49
2 -4 -4 8.98 1.16
2 -4 -4 10.23 1.14
-2 4 4 11.46 1.29
2 4 -4 9.31 1.35
2 -4 -3 137.34 5.53
2 4 -3 143.6 5.61
2 -4 -3 149.56 5.62
-2 -4 3 145.39 6.87
-2 -4 3 141.58 5.88
-2 4 3 152.49 5.58
2 -4 -2 675.26 19.52
2 -4 -2 695.58 19.16
-2 -4 2 682.96 20.41
-2 -4 2 674.07 20.56
-2 4 2 703.15 19.93
2 4 -2 647.7 18.57
-2 4 2 672.93 19
-2 -4 2 710.6 19.18
2 -4 -1 285.05 9.43
-2 4 1 288.34 9.9
-2 -4 1 284.3 10.26
-2 4 1 286.02 7.8
-2 -4 1 299.5 10.73
-2 4 1 282.98 9.24
2 4 -1 287.82 8.31
-2 -4 0 28.62 2.6
-2 4 0 34.73 2.65
-2 -4 0 34.39 2.73
2 4 0 35.73 1.41
-2 -4 0 33.88 1.71
-2 -4 0 31.8 2.9
2 -4 0 31.75 2.37
-2 -4 -1 164.57 4.63
-2 -4 -1 154.33 6.81
-2 4 -1 151.69 6.64
-2 -4 -1 150.1 6.48
-2 -4 -1 163.32 7
-2 -4 -1 164.04 7.44
2 -4 1 155.96 6.52
-2 -4 -2 526.85 16.74
-2 4 -2 513.59 16.52
2 -4 2 543.18 16.7
-2 -4 -2 508.23 16.03
-2 -4 -2 534.74 16.25
-2 4 -2 552.15 14.62
-2 -4 -2 548.22 17.64
-2 4 -3 183.69 5.45
-2 -4 -3 190.64 7.36
-2 -4 -3 188.15 6.71
-2 4 -3 178.38 8.06
-2 -4 -3 192.89 8.5
2 4 4 143.92 6.34
-2 -4 -4 143.21 6.15
2 -4 4 153.78 4.62
-2 4 -4 152.98 7.37
-2 -4 -4 143.98 7.33
2 4 4 136.81 4.33
2 4 5 167.15 7.29
-2 -4 -5 173.77 7.06
2 -4 5 182.68 5.78
-2 -4 -5 155.88 8.11
-2 4 -5 177.46 8.51
2 4 5 166.81 5.67
-2 -4 -6 425.81 13.7
2 -4 6 404.71 12.32
-2 -4 -6 408.31 15.51
2 4 6 424.35 12.54
-2 4 -6 456.43 15.95
2 4 6 445.43 14.44
2 4 6 416.34 10.89
-2 -4 -7 77.13 4.38
-2 4 -7 80.01 5.73
2 4 7 81.44 2.95
2 4 7 80.99 4.99
2 -4 7 85.99 4.04
2 4 7 70.61 3.92
-2 -4 -7 87.7 5.91
2 -4 8 129.69 5.67
-2 -4 -8 121.14 5.92
2 4 8 116.18 5.7
2 4 8 129.64 4.55
-2 -4 -8 119.7 7.32
2 4 8 119.81 6.56
-2 4 -8 123.9 7.54
2 4 9 154.67 7.85
2 -4 9 151.49 6.7
-2 4 -9 142.3 8.49
2 -4 10 348.36 12.68
2 4 10 367.59 14.28
-2 4 -10 368.27 15.6
-2 4 -11 20.31 3.24
2 -4 11 24.44 2.72
2 4 11 22.98 3.03
-2 -4 -11 21.25 2.2
-2 4 -12 60.16 5.87
2 4 12 60.97 5.33
2 -4 12 70.15 4.94
2 4 13 103.51 7.33
-2 4 -13 100.25 8.04
2 -4 13 103.59 6.54
2 4 14 102.3 7.55
-2 4 -14 87.83 7.75
2 -4 14 96.51 6.56
-2 5 14 0.23 0.95
2 5 -14 -0.45 1.47
-2 5 13 168.46 9.56
2 5 -13 162.69 10.02
-2 5 12 0.08 0.85
2 5 -12 -1.19 1.15
-2 5 11 23.77 2.48
-2 5 11 27.55 3.19
2 5 -11 27.74 3.62
-2 5 10 89.95 4.83
-2 5 10 76.58 5.36
2 5 -10 85.85 6.13
-2 5 9 209.92 8.2
2 5 -9 216.33 10.17
-2 5 9 226.22 9.55
-2 5 8 18.75 1.86
2 -5 -8 19.34 1.75
-2 5 8 18.8 2.22
2 5 -8 15.59 2.35
-2 5 7 151.22 6.09
2 5 -7 165.47 7.84
2 -5 -7 156.07 6.03
-2 5 7 153.73 6.85
2 -5 -6 95.83 4.42
-2 5 6 99.5 4.86
2 5 -6 108.82 5.76
-2 5 6 92.52 4.32
2 -5 -5 325.51 10.58
2 5 -5 331.95 11.65
-2 5 5 333.51 10.67
-2 -5 5 332.67 11.4
-2 5 5 333.26 10.44
2 -5 -5 306.2 10.48
-2 -5 4 51.53 4.16
-2 5 4 55.98 3.03
2 -5 -4 54.22 3.2
-2 5 4 54.93 3.69
-2 5 4 53.63 2.87
2 -5 -4 47.61 2.93
2 5 -4 54.56 3.46
-2 -5 4 56.4 3.69
-2 -5 4 51.74 3.58
-2 5 3 264.59 8.05
-2 5 3 255.97 9.7
2 -5 -3 258.5 9.27
2 -5 -3 245.81 8.68
-2 -5 3 241.3 10.46
-2 5 3 268.38 8.75
2 5 -3 253.31 8.9
-2 -5 3 268.77 9.91
-2 -5 3 283.22 9.62
-2 -5 2 12.69 1.82
-2 5 2 11.6 0.94
2 -5 -2 12.74 1.67
2 -5 -2 13.74 1.48
-2 5 2 11.89 1.7
-2 -5 2 12.88 1.99
2 5 -2 14.88 1.43
-2 5 2 12.94 1.42
-2 5 1 1.99 0.75
-2 -5 1 2.64 0.99
-2 -5 1 3.17 1.05
-2 5 1 2.06 0.74
2 5 -1 2.74 0.57
2 -5 -1 1.99 0.63
2 5 0 334.21 9.33
-2 -5 0 323.76 11.97
-2 5 0 344.74 12.08
-2 -5 0 349.43 12.3
-2 -5 0 340.59 9.65
-2 -5 0 349.66 12.44
-2 5 0 345.52 10.94
2 -5 0 335.31 11.39
-2 -5 -1 236.25 6.44
-2 5 -1 251.92 9.68
-2 -5 -1 244.82 9.45
-2 5 -1 236.45 7.94
-2 -5 -1 241.19 9.93
-2 -5 -2 9.19 1.51
-2 5 -2 8.53 1.66
-2 5 -2 10.85 1.85
-2 -5 -2 9.12 1.75
-2 -5 -2 10.62 1.71
-2 5 -2 9.71 0.99
-2 -5 -3 130.23 6.23
-2 -5 -3 131.42 5.89
-2 -5 -3 132.67 7.12
-2 5 -3 129.17 4.38
-2 5 -3 137.3 6.96
-2 -5 -4 263.64 9.71
-2 5 -4 236.65 10.41
-2 -5 -4 244.73 10.81
2 5 5 94.76 3.33
-2 -5 -5 92.48 5.08
-2 -5 -5 88.75 6.08
2 5 5 98.05 5.29
2 -5 5 93.93 3.15
-2 5 -5 93.38 5.94
2 5 6 6.55 0.88
2 5 6 6.68 1.43
-2 -5 -6 8.29 1.45
2 -5 6 6.71 0.84
-2 -5 -6 7.38 1.83
-2 -5 -7 122.49 6.19
2 -5 7 125.85 4.94
2 5 7 128.72 6.74
-2 -5 -7 122.1 7.63
-2 5 -7 128.9 7.63
-2 5 -8 20.86 3.1
2 -5 8 24.92 2.07
-2 -5 -8 25.21 2.58
2 5 8 22.37 2.73
-2 5 -9 23.94 3.37
-2 -5 -9 18.51 2.33
2 5 9 26.39 3.1
2 -5 9 22.47 2.1
2 5 10 151.83 8.27
-2 5 -10 147.79 8.98
2 5 11 74.82 5.78
-2 5 -11 72.29 6.32
2 5 12 25.18 3.44
-2 5 -12 30.21 4.23
2 5 13 31.96 4.14
-2 5 -13 33.79 4.61
-2 6 13 42.96 4.51
2 6 -13 39.51 4.78
-2 6 12 51.34 4.69
2 6 -12 51.71 5.29
-2 6 11 167.33 8.72
2 6 -11 158.84 9.39
-2 6 10 72 5.09
2 6 -10 67.65 5.6
-2 6 9 47.65 3.87
2 6 -9 53.83 4.65
-2 6 8 11.35 1.81
2 -6 -8 11.81 1.52
-2 6 8 9.39 1.32
-2 6 8 11.24 1.92
2 6 -8 10.22 1.97
2 -6 -7 52.48 3.45
-2 6 7 60.8 4.31
2 6 -7 53.96 4.34
-2 6 7 62.44 3.39
-2 -6 7 65.5 3.87
-2 6 7 63.44 3.95
-2 6 6 5.56 1.12
-2 -6 6 5.32 1.14
-2 6 6 5.67 0.99
2 -6 -6 6.44 1.19
-2 6 6 4.27 1.28
2 6 -6 5.32 1.42
2 6 -5 162.19 7.33
2 -6 -5 158.32 6.78
-2 6 5 162.72 7.53
-2 -6 5 166.33 8.72
-2 6 5 152.43 6.17
-2 6 5 158.34 6.17
-2 -6 5 162.94 6.97
-2 6 4 38.36 2.53
-2 6 4 35.93 3.16
2 -6 -4 31.86 2.75
2 -6 -4 31.99 2.4
-2 6 4 35.57 2.26
2 6 -4 33.88 2.81
-2 -6 4 35.85 2.93
-2 -6 4 33.43 3.58
-2 -6 3 15.62 2.39
-2 6 3 21.8 2.51
2 6 -3 18.86 1.92
2 -6 -3 16.33 1.69
-2 6 3 18.4 1.42
-2 -6 3 18.68 2.17
2 -6 -3 20.13 2.22
-2 -6 2 0.41 0.74
2 -6 -2 1.12 0.58
-2 6 2 -0.53 0.84
2 -6 -2 -0.66 0.93
-2 -6 2 0.44 0.75
2 6 -2 0.36 0.5
-2 6 1 59.25 4.34
-2 -6 1 58.5 4.52
2 -6 -1 59.24 4.3
2 6 -1 63.81 3
-2 -6 1 53.65 3.99
2 6 0 24.26 1.45
-2 6 0 22.92 2.7
-2 -6 0 22.07 2.6
-2 -6 0 23.17 1.45
-2 -6 0 20.96 2.45
-2 6 -1 34.45 3.39
-2 -6 -1 37.08 3.38
-2 -6 -1 29.11 3.03
-2 6 -1 32.75 2.36
-2 -6 -2 79.32 4.98
-2 -6 -2 69.38 4.97
-2 6 -2 71.26 3.47
-2 6 -2 78.72 5.11
-2 6 -3 3.62 1.38
-2 6 -3 1.93 0.5
-2 -6 -3 1.66 0.87
-2 -6 -3 1.05 0.99
-2 6 -4 3.65 1.2
-2 -6 -4 8.25 1.54
-2 -6 -4 5.73 1.73
-2 6 -5 12.32 2.18
-2 -6 -5 12.97 1.98
-2 -6 -5 10.44 2.2
-2 6 -6 0.17 0.97
-2 -6 -6 1.34 1.47
-2 -6 -6 0.06 0.72
-2 6 -7 26.21 3.36
2 6 7 28.62 3.07
-2 -6 -7 30.48 3.03
-2 6 -8 4.29 1.74
-2 -6 -8 5.85 1.57
2 6 8 4.95 1.57
-2 6 -9 17.53 2.91
2 6 9 16.94 2.6
-2 -6 -9 16.41 2.3
-2 6 -10 -0.52 1.21
2 6 10 -0.04 0.77
2 6 11 2.24 1.29
-2 6 -11 4.08 1.71
2 6 12 0.44 0.83
-2 6 -12 2.98 1.74
-2 7 12 7.05 1.81
2 7 -12 3.36 1.52
-2 7 11 37.65 3.81
2 7 -11 34.29 4.22
-2 7 11 39.71 3.93
-2 7 10 28.9 3.3
-2 7 10 23.9 2.92
2 7 -10 26.33 3.55
-2 7 9 25.47 3.02
-2 7 9 23.11 2.7
2 7 -9 22.49 3.15
-2 7 8 1.21 1.11
-2 7 8 3.17 0.96
2 7 -8 2.4 1.28
2 -7 -7 271.84 10.45
-2 7 7 288.82 11.81
-2 -7 7 291.8 13.33
-2 7 7 253.64 10.01
2 7 -7 312.52 12.17
-2 7 6 63.85 3.77
2 -7 -6 57.7 4.05
-2 7 6 64.84 4.79
-2 -7 6 66.83 5.66
2 7 -6 67.02 4.74
-2 -7 5 8.21 1.39
-2 7 5 6.14 1.01
2 7 -5 6.39 1.4
-2 -7 5 6.36 1.91
-2 7 5 5.74 1.44
2 -7 -5 8.37 1.52
-2 7 4 10.76 2.04
2 -7 -4 11.42 1.85
-2 -7 4 14.17 2.47
2 7 -4 10.06 1.63
-2 -7 4 13.11 1.8
2 -7 -3 219.53 9.53
-2 -7 3 212.49 10.6
-2 7 3 230.34 10.21
2 7 -3 227.1 8.48
-2 -7 3 218.78 9.02
-2 7 2 52.36 4.37
-2 -7 2 43.55 4.22
2 -7 -2 42.11 3.74
-2 -7 2 48.18 3.68
2 7 -2 44.08 2.84
-2 7 1 125.8 7.27
-2 -7 1 125.7 7.41
2 -7 -1 124.14 7.09
-2 -7 1 137.02 6.85
2 7 -1 128.56 5.02
-2 -7 0 2.12 1.3
2 -7 0 4.18 1.38
-2 -7 0 2.4 1.1
-2 -7 -1 330.52 13.54
-2 -7 -1 365.59 13.76
-2 7 -1 354.99 13.63
-2 7 -2 13.59 2.26
-2 -7 -2 11.43 2.07
-2 -7 -2 13.31 2.37
-2 7 -3 430.17 15.97
-2 -7 -3 409.3 15.47
-2 -7 -3 435.84 16.32
-2 7 -4 2.05 1.06
-2 -7 -4 4.65 1.31
-2 -7 -4 1.51 1.36
-2 -7 -5 157.45 8.13
-2 7 -5 162.7 8.83
-2 -7 -5 167.42 9.39
-2 7 -6 3.62 1.49
-2 -7 -6 3.68 1.27
-2 -7 -7 288.51 11.99
-2 7 -7 292 13.13
-2 7 -8 13.83 2.63
-2 -7 -8 22.18 2.77
-2 7 -9 2.81 1.68
2 7 9 1.99 1.24
-2 -7 -9 0.57 0.84
-2 7 -10 1.95 1.5
2 7 10 -0.24 0.98
-2 -7 -10 0.59 0.99
-2 7 -11 267.66 13.81
2 7 11 311.19 13.92
-2 8 10 1.88 0.9
-2 8 9 92.41 6.52
-2 -8 8 2.2 1.23
-2 8 8 2.18 1.43
-2 8 7 18 2.79
-2 -8 7 19.45 3.28
-2 8 6 46.95 4.5
2 -8 -6 41.21 3.71
-2 -8 6 48.54 5.09
2 -8 -5 160.47 8.02
-2 -8 5 149.04 9.3
-2 8 5 168.67 9
-2 8 4 9.35 2.04
2 -8 -4 6.57 1.67
-2 -8 4 5.76 1.82
-2 8 3 92.64 6.43
2 -8 -3 85.92 5.79
-2 -8 3 76.4 6.23
-2 -8 2 47.46 4.72
2 -8 -2 43.87 4.13
-2 -8 2 52.51 4.02
-2 -8 1 211.19 10.77
2 -8 -1 205.16 10.15
-2 -8 1 227.05 9.82
-2 8 0 -0.16 0.79
-2 -8 0 -0.12 0.88
2 -8 0 -1.04 0.89
-2 -8 0 -0.01 0.83
-2 -8 -1 115.36 7.37
2 -8 1 123.33 7.61
-2 -8 -1 122.43 7.17
-2 8 -1 113.22 7.02
-2 -8 -2 31.51 3.67
-2 8 -2 34.96 3.75
-2 -8 -2 32.73 3.64
-2 -8 -3 49.14 4.57
-2 -8 -3 57.56 5.01
-2 8 -3 56.55 4.91
-2 8 -4 20.48 3.04
-2 -8 -4 24.34 3.26
-2 -8 -5 237.44 11.09
-2 8 -5 241.24 11.54
-2 -8 -6 22.34 2.97
-2 8 -6 23.82 3.34
-2 8 -7 36.14 4.12
-2 -8 -7 32.4 3.66
-2 8 -8 28.37 3.82
-2 -8 -8 22.09 3.12
-2 -8 -9 163.78 9.1
-2 8 -9 196.72 10.76
-2 -8 -10 24.44 3.25
-2 9 8 15.23 2.75
-2 9 7 186.73 10.48
-2 9 6 18.5 3.17
-2 9 5 133.79 8.5
2 -9 -5 112.01 7.08
2 -9 -4 10.66 2.17
-2 -9 4 18.33 3.29
2 -9 -3 115.96 7.36
-2 -9 3 118.27 8.3
-2 -9 2 54.55 5.42
2 -9 -2 46.87 4.59
2 -9 -1 3.25 1.43
-2 9 1 2.43 1.16
-2 -9 1 1.1 1
2 -9 0 7.93 2.04
-2 -9 0 10.66 2.4
-2 -9 -1 110.15 7.73
2 -9 1 113.43 7.65
-2 9 -1 107.14 7.12
2 -9 2 8.75 2.42
-2 -9 -2 5.14 1.72
-2 9 -2 4.08 1.47
-2 -9 -3 60.02 5.5
-2 9 -3 61.25 5.35
-2 9 -4 1.85 1.19
-2 -9 -4 4.94 1.79
-2 -9 -5 90.7 6.8
-2 9 -5 91.96 6.82
-2 9 -6 3.04 1.39
-2 -9 -6 1.93 1.25
-2 9 -7 66.98 5.96
2 -10 -3 8.87 2.27
2 -10 -2 28.53 3.81
2 -10 -1 19.79 3.09
2 -10 0 2.02 1.59
-3 0 15 106.95 7.23
-3 0 14 -0.86 1.15
-3 0 13 137.92 7.78
3 0 -12 1.15 0.95
-3 0 12 0.72 0.95
3 0 -11 139.67 7.38
-3 0 11 142.75 7.46
-3 0 10 0.27 0.91
-3 0 9 130.63 6.63
-3 0 8 0 0.71
-3 0 7 403.35 13.44
-3 0 6 0.63 0.31
-3 0 6 0.44 0.55
-3 0 5 105.22 3.23
-3 0 5 112.59 5.04
-3 0 4 1.44 0.6
-3 0 4 0.41 0.17
-3 0 4 0.89 0.52
-3 0 3 285.81 7.63
-3 0 3 276.86 9.2
-3 0 2 0.17 0.18
3 0 -2 0.27 0.23
-3 0 2 0.12 0.53
-3 0 1 241.38 7.79
3 0 -1 233.87 6.8
3 0 0 0.32 0.25
-3 0 0 -0.1 0.5
3 0 1 112.08 4.45
3 0 1 117.88 4.1
-3 0 -1 110.63 4.5
-3 0 -2 -0.3 0.51
3 0 2 0.23 0.3
3 0 2 -0.36 0.44
-3 0 -3 185.52 7.72
-3 0 -3 195.41 7.13
3 0 3 192.87 6.92
-3 0 -4 0.37 0.88
-3 0 -4 0.45 0.72
3 0 4 0.83 0.71
3 0 4 0.67 0.53
-3 0 -4 0.84 0.34
-3 0 -4 0.86 0.49
-3 0 -5 126.44 5.33
-3 0 -5 113.56 6.14
3 0 5 127.42 5.52
3 0 5 126.88 5.76
-3 0 -5 132.79 6.04
-3 0 -6 -0.65 0.9
3 0 6 1.5 0.95
-3 0 -6 -0.4 0.53
3 0 7 348.88 12.2
-3 0 -7 342.11 11.42
-3 0 -7 325.61 12.56
-3 0 -8 0.02 0.78
3 0 8 -0.25 0.86
-3 0 -8 1.93 0.81
3 0 9 53.95 4.1
-3 0 -9 43.91 3.17
-3 0 -9 42.36 3.85
3 0 10 0.15 0.97
-3 0 -10 0.82 1.09
-3 0 -11 0.72 0.94
3 0 11 1.07 0.78
3 0 12 0.18 0.89
-3 0 -12 1.51 1.16
3 0 13 35.48 3.99
-3 0 -13 38.13 4.23
3 0 14 -1.38 1.32
-3 0 -14 0.37 1.03
3 0 15 3.87 1.72
-3 0 -15 0.09 1.11
-3 0 -16 -1.05 1.61
-3 1 16 19.32 2.88
3 1 -15 69.7 5.99
-3 1 15 66.25 5.4
-3 1 14 4.38 1.63
3 1 -14 2.34 1.37
3 1 -13 201.12 10.02
-3 1 13 187.02 9.21
-3 1 12 7.64 1.78
3 1 -12 5.62 1.68
3 1 -11 4.96 1.4
-3 1 11 4.47 1.38
-3 1 10 1.67 0.39
-3 1 10 3.22 1.16
3 1 -10 4.32 1.39
-3 1 9 599.98 15.74
3 1 -9 610.38 19.22
-3 1 9 577.55 18.81
-3 1 8 114.89 3.47
3 1 -8 104.39 5.62
-3 1 8 110.37 5.66
-3 1 7 6.61 1.33
3 1 -7 4.01 1.07
-3 -1 7 6.66 1.49
-3 1 6 1.31 0.58
3 1 -6 1.46 0.84
-3 -1 6 2.33 0.92
-3 -1 5 541.35 14.67
-3 1 5 497.45 15.53
-3 -1 5 531.46 16.02
-3 -1 5 510.89 15.58
-3 -1 4 204.72 6.48
-3 1 4 210.32 7.47
-3 -1 4 205.76 7.32
-3 -1 4 210.57 7.63
-3 1 3 321.57 9.99
-3 -1 3 298.56 8.85
-3 -1 3 308.41 9.94
-3 -1 3 316.22 9.61
-3 1 2 25.6 1.94
3 -1 -2 26.45 1.12
-3 -1 2 25.64 1.51
-3 -1 2 29.51 2.02
3 1 -2 27.15 1.67
-3 -1 2 28.96 1.81
3 1 -2 30.34 2
-3 -1 1 301 9.23
3 1 -1 301.23 8.83
-3 -1 1 287.42 8.67
3 1 -1 293.48 9.14
-3 1 1 315 9.58
-3 -1 0 100.62 4.05
-3 -1 0 105.21 3.89
3 1 0 98.97 3.85
3 1 0 102.15 4.01
-3 1 0 103.38 4.37
-3 -1 -1 583.43 15.31
3 1 1 525.45 15.17
3 1 1 565.5 15.29
-3 1 -1 542.71 15.85
-3 -1 -1 531.21 15.3
-3 1 -2 7.73 1.17
-3 -1 -2 12.52 1.24
-3 -1 -2 10.46 1.12
3 1 2 10.74 1.1
-3 1 -2 9.25 1.09
-3 -1 -2 11.13 1.45
3 1 2 9.38 1
-3 -1 -3 20.31 2.42
-3 -1 -3 29.33 2.29
-3 1 -3 29.54 1.79
-3 -1 -3 27.95 1.95
-3 -1 -3 28.18 2.26
-3 1 -3 28.22 1.89
3 1 3 26.96 1.79
-3 1 -4 115.45 4.4
-3 -1 -4 106.03 3.15
-3 -1 -4 116.15 5.15
3 -1 4 120.15 5.13
-3 1 -4 110.26 5.91
3 -1 4 119.79 5.24
3 1 4 112.01 4.45
-3 1 -4 114.13 4.53
-3 -1 -4 102.17 4.99
-3 -1 -4 106.2 5.84
3 -1 5 164.68 6.58
-3 1 -5 160.73 5.92
3 1 5 152.87 5.85
-3 1 -5 155.16 6.21
-3 -1 -5 146.2 6.43
-3 -1 -5 143.25 6.98
-3 1 -5 145.1 7.46
3 1 6 23.17 2.36
-3 -1 -6 17.59 1.93
-3 1 -6 20.26 2.68
3 -1 6 21.46 2.13
3 1 6 18.57 1.77
-3 -1 -6 21.57 2.42
-3 1 -6 18 1.71
-3 1 -7 61.23 4.72
3 1 7 61.75 4.18
3 -1 7 64.23 4.02
-3 1 -7 56.7 3.16
-3 -1 -7 54.32 3.86
-3 -1 -7 60.86 3.91
-3 -1 -8 178.46 7.83
3 -1 8 187.85 6.65
3 -1 8 188.23 8.14
3 1 8 191.55 8.48
-3 1 -8 181.6 6.81
-3 1 -8 171.02 8.96
-3 -1 -8 190.81 8.11
3 -1 9 107.01 4.6
-3 1 -9 102.3 4.69
3 -1 9 108.87 6.03
3 1 9 93.87 5.9
-3 -1 -9 108.24 5.75
-3 -1 -9 97.46 5.6
-3 1 -9 94.5 6.42
-3 1 -10 1.08 1.06
3 -1 10 1.35 0.82
3 -1 10 1.9 0.73
3 1 10 2.05 1.14
-3 -1 -10 1.16 0.64
-3 -1 -10 1.3 0.98
3 -1 11 138.63 7.62
-3 1 -11 123.99 8.08
3 1 11 155.56 8.15
-3 -1 -11 136.03 7.31
3 -1 12 108.44 6.91
-3 -1 -12 104.05 6.59
-3 1 -12 110.46 7.7
3 1 12 114.27 7.24
3 1 13 37.67 4.25
3 -1 13 34.24 3.93
-3 -1 -13 37.13 3.86
-3 1 -13 35.62 4.38
3 -1 14 0.51 0.89
3 1 14 0.86 1.26
-3 -1 -14 -0.89 0.97
-3 1 -14 -0.31 1.03
-3 -1 -15 13.25 2.54
3 -1 15 17.11 2.98
3 1 15 17.06 3.09
-3 1 -15 14.11 3.07
3 -1 16 17.68 3.23
-3 -1 -16 15.59 3.01
-3 2 16 3.76 1.49
-3 2 15 34.33 3.78
3 2 -15 35.74 4.4
-3 2 14 1.84 1.17
3 2 -14 1.77 1.33
-3 2 13 0.2 0.9
3 2 -13 2.14 1.32
-3 2 12 8.88 1.86
3 2 -12 8.19 2.01
3 2 -11 30.41 3.36
-3 2 11 32.01 3.16
3 2 -10 2.13 1.23
-3 2 10 2.31 1.02
-3 2 9 100.75 3.33
3 2 -9 103.94 5.88
-3 2 9 102.44 5.51
-3 2 8 17 2.04
3 2 -8 18.14 2.24
3 2 -7 32.61 2.79
-3 2 7 33.25 2.7
3 2 -6 11.26 1.61
-3 2 6 11.1 1.53
-3 2 5 345.58 11.11
-3 -2 5 339.21 11.01
3 2 -5 325.04 11.02
-3 -2 5 346.52 11.19
-3 -2 5 337.95 11.56
-3 2 4 181.97 6.64
-3 -2 4 168.87 6.37
3 2 -4 166.44 6.36
-3 -2 4 174.93 6.5
3 -2 -4 167.77 6.63
-3 -2 4 180.29 6.93
-3 2 3 152.86 5.89
-3 -2 3 145.99 5.56
3 -2 -3 152.65 5.95
-3 -2 3 150.47 5.48
-3 -2 3 144.36 5.87
-3 -2 2 24.95 1.8
3 -2 -2 27.7 2.07
-3 -2 2 26.51 1.93
-3 -2 2 25.82 1.66
-3 2 2 26.05 2.04
-3 -2 1 493.22 14.19
-3 -2 1 497.34 14.12
3 2 -1 479.91 14.31
-3 -2 1 503.12 13.48
-3 2 1 500.37 14.68
-3 -2 0 91.17 3.73
-3 -2 0 93.57 3.99
3 2 0 95.41 4.04
-3 -2 0 94.06 3.23
3 2 0 94.62 3.7
-3 2 0 91.37 4.27
-3 -2 -1 7.36 0.9
3 2 1 7.46 0.83
-3 -2 -1 6.99 1.02
3 2 1 8.66 1.06
-3 2 -1 6.22 1.09
-3 -2 -2 84.84 3.81
3 2 2 86.73 3.3
-3 -2 -2 87.25 4.56
-3 2 -2 83.72 3.79
-3 2 -2 78.41 3.24
-3 2 -2 73.14 3.92
-3 -2 -2 81.84 3.39
-3 -2 -2 74.3 3.27
-3 -2 -2 73.86 4.86
-3 2 -3 696.35 18.06
3 2 3 618.93 17.87
-3 -2 -3 722.8 19.01
-3 2 -3 642.51 18.69
-3 -2 -3 698.14 18.21
-3 -2 -3 615.49 20.95
-3 -2 -4 152.69 5.91
-3 2 -4 147.22 5.88
-3 2 -4 144.8 5.23
-3 -2 -4 144.91 5.22
-3 -2 -4 138.48 7.3
-3 2 -4 159.44 7.44
3 2 4 149.72 5.15
3 -2 5 85.34 4.29
-3 -2 -5 82.01 3.76
-3 -2 -5 86.36 5.43
3 2 5 88.03 3.67
-3 2 -5 84.61 3.81
-3 2 -5 92.21 5.71
-3 -2 -6 86.14 4.02
3 -2 6 94.47 4.66
3 2 6 84.95 4.99
3 2 6 86.63 3.88
-3 -2 -6 89.5 5.5
-3 2 -6 81.06 3.53
-3 2 -6 85.89 5.82
3 2 7 749.28 23.13
-3 -2 -7 757.81 23.55
3 2 7 712.09 22.35
3 -2 7 761.17 21.73
3 -2 7 774.6 22.39
3 2 7 718.26 21.13
-3 2 -7 798.48 20.39
-3 -2 -7 748.59 21.48
-3 2 -7 749.62 24.73
-3 2 -8 81.76 3.57
3 -2 8 90.96 5.02
-3 -2 -8 86.29 4.49
-3 -2 -8 85.9 5.43
-3 2 -8 90.23 6.27
3 2 8 82.95 5.29
-3 -2 -9 52.33 4.18
3 -2 9 50.5 3.85
3 2 9 59.01 4.51
-3 -2 -9 47.14 3.41
-3 2 -9 52.39 4.85
-3 2 -10 32.63 4.08
3 -2 10 38.06 3.47
-3 -2 -10 41.92 3.78
-3 -2 -10 38.07 3.2
3 2 10 35.41 3.63
3 2 11 371.37 14.8
3 -2 11 359.22 14.01
-3 -2 -11 361.42 13.22
-3 2 -11 380.12 16.12
3 -2 12 7.64 1.73
3 2 12 6.12 1.64
-3 -2 -12 6.76 1.55
-3 2 -12 6.04 2.09
3 -2 13 290.22 12.78
3 2 13 279.63 13.18
-3 2 -13 276.11 14.25
-3 -2 -13 285.44 11.87
3 -2 14 74.79 6.06
3 2 14 78.39 6.45
-3 -2 -14 67.25 5.27
-3 2 -14 70.03 6.77
-3 -2 -15 66.12 5.49
3 -2 15 88.72 6.91
-3 2 -15 89.82 7.91
-3 -2 -16 2.83 1.04
3 -2 16 7.6 2.31
-3 3 16 123.47 7.61
-3 3 15 36.82 3.88
-3 3 14 -0.03 0.93
3 3 -14 0.05 1.06
3 3 -13 56.67 5.27
-3 3 13 56.07 4.52
-3 3 12 245.08 10.61
3 3 -12 258.33 11.84
-3 3 11 1.38 0.88
3 3 -11 0.25 0.99
-3 3 10 71.39 4.65
3 3 -10 77.77 5.32
-3 3 9 352.59 12.74
3 3 -9 378.95 13.7
-3 3 8 337.47 11.8
3 3 -8 331.5 12.32
-3 3 7 14.75 1.79
3 3 -7 13.8 1.92
-3 3 6 199.95 7.64
3 3 -6 199.44 7.93
-3 3 5 227.96 8.05
3 -3 -5 213.66 6.11
-3 -3 5 215.65 8.51
3 3 -5 213.77 8.02
-3 -3 5 213.12 8.11
-3 3 4 181.86 6.85
3 -3 -4 180.83 5.42
-3 -3 4 176.43 7.24
-3 -3 4 181.17 6.82
-3 -3 4 176.24 7.2
3 3 -4 176.15 6.68
-3 -3 3 218.76 8.27
3 -3 -3 235.42 7.06
3 -3 -3 227.1 8.06
3 3 -3 211.12 7.38
-3 -3 3 222.65 7.57
-3 -3 3 220.25 8.01
-3 3 3 228.57 8.01
-3 -3 2 202.36 6.44
3 -3 -2 195.06 7.22
-3 -3 2 177.5 7.13
-3 3 2 199.08 7.23
-3 -3 2 186.2 6.83
-3 -3 1 1.98 0.75
-3 -3 1 2.19 0.6
3 -3 -1 1.92 0.55
-3 3 1 0.48 0.57
3 3 -1 2.56 0.71
-3 -3 1 1.16 0.37
3 -3 0 63.22 3.59
-3 -3 0 69.76 3
-3 -3 0 66.3 3.55
-3 3 0 69.02 3.68
-3 -3 0 66.19 2.36
-3 -3 -1 369.79 13.9
-3 3 -1 366.36 10.56
-3 -3 -1 390.88 12.15
-3 3 -1 409.46 12.38
-3 3 -1 400.67 12.44
-3 -3 -1 397.44 10.99
-3 -3 -2 141.14 4.76
-3 -3 -2 133.53 5.67
-3 3 -2 137.85 5.79
-3 3 -2 138.62 4.37
-3 -3 -2 132.98 7.24
3 3 2 139.44 4.54
-3 -3 -3 12.44 2.25
3 3 3 11.45 0.89
-3 3 -3 9.72 0.84
-3 3 -3 10.3 1.42
-3 -3 -3 11.39 1.44
-3 -3 -4 8.58 1.76
-3 3 -4 9.01 1.8
3 3 4 10.59 0.9
-3 -3 -4 9.3 0.78
-3 3 -4 7.14 1.3
-3 -3 -4 6.45 1.13
-3 -3 -4 10.23 0.75
3 -3 5 357.14 11.25
-3 -3 -5 342.76 11.64
-3 -3 -5 365.27 10.09
-3 -3 -5 334.6 13.58
3 3 5 346.87 12.5
-3 3 -5 366.36 13.82
-3 3 -5 348.56 10.1
3 3 5 361.68 10.16
-3 3 -6 2.69 1.45
-3 -3 -6 -0.17 0.67
3 3 6 0.39 0.33
3 -3 6 0.29 0.49
3 3 6 2.16 1.03
-3 -3 -6 0.51 0.37
-3 3 -6 0.52 0.25
-3 -3 -6 -0.56 1.1
3 3 7 165.74 7.86
3 -3 7 165.71 6.86
-3 -3 -7 169.83 6.11
-3 -3 -7 172.78 8.63
3 3 7 158.69 5.85
-3 3 -7 170.49 8.95
3 3 7 166.19 6.84
-3 3 -8 5.77 2.02
3 3 8 9.08 1.53
3 3 8 6.08 0.96
3 -3 8 8.03 1.4
3 3 8 4.62 1.3
-3 -3 -8 6.74 1.13
-3 -3 -8 6.31 1.63
3 -3 9 60.81 4.19
3 3 9 66.2 4.97
-3 -3 -9 70.24 5.35
-3 -3 -9 68.71 3.84
-3 3 -9 58.05 5.34
-3 3 -10 21.21 3.26
3 -3 10 17.46 2.31
3 3 10 24.8 3.05
-3 -3 -10 21.04 2.95
-3 -3 -10 18.36 2.03
-3 -3 -11 135.14 6.57
-3 3 -11 142.83 9.19
3 -3 11 145.72 7.53
3 3 11 150.71 8.38
3 -3 12 3.37 1.36
3 3 12 1.5 0.99
-3 -3 -12 1.97 0.97
-3 3 -12 2.27 1.63
3 -3 13 40.59 4.13
-3 -3 -13 34.05 3.26
-3 3 -13 27.07 4.16
3 3 13 37.1 4.31
3 -3 14 2.95 1.36
3 3 14 0.89 1.01
-3 3 -14 2.93 1.61
3 -3 15 27.75 3.72
-3 4 14 96.15 6.29
3 4 -14 87.4 7.18
-3 4 13 65.18 5.03
3 4 -13 78.77 6.38
-3 4 12 1.95 1.12
3 4 -12 0.72 1
-3 4 11 92.63 5.65
3 4 -11 86.02 6.22
-3 4 10 96.39 5.52
3 4 -10 93.06 6.21
-3 4 9 57.38 3.94
3 4 -9 56.64 4.45
-3 4 8 13.23 1.79
3 4 -8 9.52 1.74
3 -4 -7 239.26 7.17
-3 4 7 244.99 9.02
3 4 -7 231.32 9.54
-3 4 6 20.88 2.09
3 -4 -6 22.37 1.45
-3 -4 6 26.19 2.76
3 4 -6 23.98 2.39
-3 4 5 50.33 3.2
-3 -4 5 50.55 3.45
3 -4 -5 52.84 2.52
-3 -4 5 50.22 3.9
3 4 -5 57.99 3.52
3 -4 -4 80.17 3.46
-3 -4 4 85.18 4.97
3 4 -4 82.81 4.05
-3 -4 4 74.29 4.05
-3 4 4 77.76 4.06
-3 -4 3 433.95 14.54
3 -4 -3 444.48 13.11
3 4 -3 424.44 12.86
-3 -4 3 435.01 13.21
-3 4 3 445.28 13.64
-3 -4 3 438.4 13.7
-3 -4 2 136.52 6.25
3 4 -2 128.09 4.6
-3 -4 2 118.12 4.76
-3 -4 2 126.44 5.24
-3 4 2 136.29 5.67
-3 -4 1 41.54 2.4
-3 -4 1 45.27 3.2
-3 4 1 44.5 3.14
-3 4 1 46.68 2.98
-3 -4 1 37.78 2.01
-3 -4 1 36.13 3.35
-3 -4 0 190.71 6.27
-3 -4 0 187.49 7.69
-3 4 0 191.43 7.72
-3 4 0 202.85 7.61
-3 -4 0 199.72 8.96
-3 -4 -1 124.78 5.8
-3 4 -1 119.06 5.8
-3 -4 -1 126.99 7.02
-3 -4 -1 128.87 4.32
-3 -4 -2 6.04 1.7
-3 -4 -2 6.4 0.69
-3 4 -2 5.81 1.37
-3 -4 -2 8.22 1.38
-3 -4 -3 10.51 2.05
-3 4 -3 10.93 1.95
-3 4 -3 12.78 1.76
-3 -4 -3 10.84 1.33
-3 -4 -3 10.05 1.5
-3 -4 -4 119.48 5.59
-3 -4 -4 109.45 6.76
-3 -4 -4 107.93 4.28
-3 4 -4 111.05 6.51
-3 -4 -5 75.08 4.39
3 4 5 76.28 2.53
-3 -4 -5 70.31 5.37
-3 4 -5 80.65 5.5
-3 4 -6 21.48 2.91
3 4 6 20.42 1.13
-3 -4 -6 16.39 2.01
3 -4 6 19.83 1.76
3 4 6 22.96 2.69
-3 -4 -6 16.04 2.58
-3 -4 -7 54.05 3.78
3 -4 7 58.04 3.41
-3 -4 -7 51.13 4.77
-3 4 -7 52.93 4.82
3 4 7 62.08 3.24
3 4 7 61.07 4.5
3 4 7 58.64 2.45
3 -4 8 137.23 5.98
3 4 8 129.4 7.15
-3 -4 -8 126.7 4.91
-3 -4 -8 117.23 7.7
-3 4 -8 116.12 7.71
3 -4 9 99.01 5.31
3 4 9 102.82 6.54
-3 -4 -9 107.77 4.65
-3 -4 -9 100.11 7.11
-3 4 -9 96.21 7.05
3 -4 10 51.41 3.79
-3 -4 -10 45.64 3.01
-3 4 -10 47.73 4.98
3 4 10 42.73 4.27
-3 4 -11 -0.68 1.08
3 4 11 0.37 0.89
3 -4 11 -0.17 0.76
-3 4 -12 2.13 1.67
3 -4 12 -0.85 0.99
3 4 12 -0.34 1.09
3 4 13 13.18 2.69
-3 4 -13 10.09 2.78
-3 5 13 68.6 5.85
3 5 -13 66.81 5.96
-3 5 12 12.56 2.04
-3 5 12 15.97 2.6
3 5 -12 11.85 2.5
-3 5 11 23.5 2.7
3 5 -11 24.68 3.38
-3 5 10 77.28 4.8
3 5 -10 67.73 5.34
-3 5 9 240.92 9.61
3 5 -9 254.74 11.1
-3 5 8 29.65 2.64
3 5 -8 29.6 3.16
3 -5 -7 6.97 0.99
-3 5 7 7.86 1.34
3 5 -7 5.49 1.3
3 -5 -6 215.66 7.34
-3 -5 6 200.01 9.61
3 5 -6 219.84 8.86
-3 5 6 212.64 8.15
3 -5 -5 92.68 4.18
-3 -5 5 93.05 5.85
3 5 -5 102.32 5.07
-3 5 5 91.58 4.69
3 -5 -4 42.16 2.77
-3 -5 4 40.02 3.67
3 5 -4 47.14 2.99
-3 5 4 47.59 3.12
-3 -5 4 48.18 3.3
-3 -5 3 28.04 2.99
-3 -5 3 33.42 3.24
3 -5 -3 36.38 2.7
-3 5 3 34.23 3.03
3 5 -3 35.06 2.3
-3 5 3 33.14 2.61
-3 -5 3 34.59 2.57
-3 -5 2 388.04 13.88
-3 5 2 391.77 13.43
-3 5 2 391.55 10.8
3 5 -2 366.77 11.14
-3 5 2 399.97 12.77
-3 -5 2 360.51 12.01
-3 -5 2 423.19 11.95
-3 -5 2 391.62 14.18
-3 5 1 45.51 3.56
-3 -5 1 49.47 3.8
-3 5 1 51.2 1.82
-3 -5 1 53.02 2.8
-3 5 1 50.93 3.38
-3 -5 1 53.69 4.22
-3 5 0 248.41 9.55
-3 -5 0 226.64 7.18
-3 -5 0 221.41 9.28
-3 -5 0 237.43 10.32
-3 5 -1 185.38 8.21
-3 -5 -1 179.61 7.98
-3 -5 -1 194.6 9.17
-3 -5 -1 187.97 5.68
-3 5 -2 202.39 8.66
-3 -5 -2 211.45 8.5
-3 -5 -2 205.17 9.61
-3 -5 -3 7.85 1.81
-3 5 -3 10.8 2.06
-3 5 -3 14.65 2.18
-3 -5 -3 10.82 1.7
-3 -5 -3 8.71 1.36
-3 5 -3 10.47 1
-3 -5 -4 170.59 7.5
-3 5 -4 156.07 4.81
-3 -5 -4 175.4 8.97
-3 5 -4 162.26 8.36
-3 5 -5 18.73 2.86
-3 -5 -5 18.74 2.24
-3 -5 -5 18.52 2.89
-3 5 -6 0.12 1.09
-3 -5 -6 -0.41 1.22
-3 5 -7 12.44 2.41
3 5 7 18.14 2.61
-3 -5 -7 18.01 2.25
-3 -5 -7 15.75 2.88
-3 -5 -8 249.74 10.39
3 5 8 271.87 11.45
-3 -5 -8 252.82 12.62
-3 5 -8 252.87 12.26
-3 5 -9 14.41 2.76
3 5 9 10.04 2.09
-3 -5 -9 13.59 2.79
-3 5 -10 4.37 1.69
3 5 10 3.19 1.6
3 5 11 52.14 5.03
-3 5 -11 42.02 4.83
3 5 12 226.31 11.68
-3 5 -12 192.37 11.64
-3 6 13 4.04 1.48
3 6 -13 5.78 2.01
-3 6 12 4.58 1.67
3 6 -12 4.33 1.6
-3 6 11 3.84 1.45
3 6 -11 2.92 1.28
-3 6 10 -0.29 0.73
3 6 -10 0.89 1.18
-3 -6 9 49.09 4.75
-3 6 9 45.29 3.8
3 6 -9 46.04 4.29
-3 6 9 45 3.38
-3 -6 8 73.14 5.73
-3 6 8 65.01 4.39
-3 6 8 71.14 4.2
3 6 -8 65.75 4.94
-3 -6 7 11.06 1.8
-3 6 7 15.28 1.85
-3 6 7 10.36 1.56
-3 -6 7 11.38 2.25
3 6 -7 10.91 1.86
-3 6 6 3.99 0.92
-3 -6 6 1.02 1
-3 -6 6 2.49 1.04
-3 6 6 2.01 0.79
-3 6 6 2.77 1.12
3 -6 -6 3.5 0.87
3 6 -6 3.08 1.03
3 -6 -5 161.5 6.71
-3 6 5 164.99 7.9
-3 -6 5 153.28 8.45
-3 6 5 163.7 6.35
3 6 -5 165.1 7.16
-3 6 5 160.81 6.83
-3 -6 5 178 8.14
-3 6 4 177.48 6.36
3 -6 -4 191.38 7.63
-3 6 4 183.06 8.43
-3 -6 4 172.31 8.92
-3 -6 4 184.8 8.61
3 6 -4 193.76 7.38
-3 6 4 182.01 7.42
-3 -6 3 14.13 2.23
-3 -6 3 15.23 1.81
3 -6 -3 16.47 2.01
-3 6 3 13.89 1.15
-3 6 3 15.84 2.26
-3 -6 3 15.46 2.38
3 6 -3 14.62 1.49
-3 6 3 14.16 1.76
-3 -6 2 4.33 1.23
-3 -6 2 3.06 0.83
-3 -6 2 3.53 1.38
-3 6 2 3.73 0.46
3 -6 -2 1.31 0.69
3 6 -2 3.54 0.63
-3 -6 1 77.33 3.6
-3 6 1 81.97 5.22
-3 -6 1 73.96 5.23
-3 -6 1 83.68 5.47
-3 6 0 129.83 6.98
-3 -6 0 126 4.47
-3 -6 0 131.22 7
-3 -6 0 132.6 7.29
-3 -6 -1 -0.2 0.91
-3 -6 -1 -0.58 0.96
-3 6 -1 0.6 0.38
-3 6 -2 132.08 7.23
-3 -6 -2 130.66 6.91
-3 6 -2 122.01 5.05
-3 -6 -2 138.5 7.77
-3 6 -2 137.86 7.53
-3 -6 -3 186.44 8.64
-3 -6 -3 187.63 9.59
-3 6 -3 188.52 9.35
-3 -6 -4 225.63 9.93
-3 -6 -4 248.53 11.64
-3 6 -4 248.23 11.19
-3 6 -5 28.98 3.53
-3 -6 -5 25.45 2.87
-3 -6 -5 33.96 4.02
-3 -6 -6 342.8 13.22
-3 -6 -6 360.14 15.63
-3 6 -6 366.32 15.01
-3 -6 -7 244.17 10.47
-3 -6 -7 243.35 12.56
-3 6 -7 249.66 12.01
-3 -6 -8 139.24 7.51
-3 -6 -8 149.91 9.59
-3 6 -8 154.2 9.15
-3 6 -9 33.41 4.12
-3 -6 -9 29.01 3.22
3 6 9 27.95 3.53
3 6 10 213.1 10.92
-3 6 -10 200.55 11.27
-3 6 -11 40.84 4.82
3 6 11 49.65 5.01
-3 7 12 218.7 10.71
3 7 -12 211.28 11.42
-3 7 11 26.27 3.29
-3 -7 11 29 3.93
3 7 -11 23.72 3.36
-3 7 10 128.76 7.61
-3 -7 10 123.23 8.43
3 7 -10 130.18 7.96
-3 -7 9 1.5 1.43
-3 7 9 2.31 1.21
3 7 -9 0.96 0.93
-3 7 8 210.92 10.12
-3 -7 8 219.16 11.48
3 7 -8 232.45 10.34
-3 -7 7 5.56 1.83
-3 7 7 6.39 1.6
3 7 -7 2.05 0.98
-3 7 6 193.8 9.33
-3 -7 6 185.42 10.08
3 7 -6 196.87 8.54
-3 -7 5 1.99 1.04
-3 -7 5 2.89 1.3
-3 7 5 2.83 1.31
3 -7 -5 1.84 0.95
-3 7 5 2.83 0.94
-3 7 4 46.9 4.16
3 -7 -4 43.94 3.56
-3 -7 4 41.28 4.21
-3 -7 4 42.25 3.72
-3 -7 3 21.7 2.79
3 -7 -3 28.69 2.95
-3 7 3 27.29 3.23
-3 -7 3 23.76 3.24
-3 -7 3 25.48 2.35
-3 7 2 382.01 14.41
-3 -7 2 343.42 14.45
3 -7 -2 338.5 13.36
-3 -7 2 373.02 13.95
-3 7 1 47.74 4.3
-3 -7 1 48.77 4.4
3 -7 -1 40.88 3.89
-3 -7 1 47.4 4.17
-3 -7 0 3.62 1.46
-3 7 0 6.15 1.6
-3 -7 0 5.42 1.66
-3 7 -1 151.53 8.26
-3 -7 -1 136.39 7.72
-3 -7 -1 135.53 7.77
-3 -7 -2 262.15 11.56
-3 -7 -2 253.98 11.81
-3 7 -2 288.02 12.35
-3 7 -3 29.07 3.64
-3 -7 -3 27.14 3.16
-3 -7 -3 27.54 3.51
-3 7 -4 5.91 1.82
-3 -7 -4 8.03 1.76
-3 -7 -4 4.59 1.68
-3 -7 -5 46.26 4.18
-3 -7 -5 50.07 5.11
-3 7 -5 53.87 5.05
-3 7 -6 3.91 1.7
-3 -7 -6 2.53 1.28
-3 -7 -6 3.14 1.72
-3 7 -7 8.06 2.17
-3 -7 -7 6.81 1.7
-3 -7 -7 12.54 2.95
-3 -7 -8 47.45 4.29
-3 7 -8 49.73 5.13
-3 7 -9 15.33 2.99
-3 -7 -9 15.04 2.5
-3 7 -10 5.73 1.9
-3 -7 -10 5.5 1.69
-3 8 10 68.22 5.7
-3 8 9 8.31 2.01
-3 8 8 -0.26 1.05
-3 -8 8 0.73 1.05
-3 8 7 3.21 1.38
-3 -8 7 3.85 1.65
-3 8 6 78 5.97
-3 -8 6 71.62 6.24
-3 8 5 9.87 2.18
-3 -8 5 10.7 2.46
-3 8 4 138.25 8.13
3 -8 -4 119.49 6.81
-3 -8 4 119.55 8.05
-3 8 3 20.86 3.09
-3 -8 3 23.73 3.38
3 -8 -3 20.11 2.74
-3 -8 3 28.24 3.14
-3 8 2 132.45 8.11
-3 -8 2 130.45 8.25
3 -8 -2 122.83 7.28
-3 -8 2 132.39 7.36
-3 -8 1 41.65 4.35
3 -8 -1 38.11 3.95
-3 8 1 33.35 4.01
-3 -8 1 30.88 3.5
-3 -8 0 67.23 5.62
3 -8 0 74.65 5.74
-3 -8 0 76.02 5.62
-3 -8 -1 4.82 1.47
-3 8 -1 5.55 1.82
-3 -8 -1 6.18 1.67
-3 8 -2 29.06 3.73
-3 -8 -2 31.49 3.75
-3 -8 -2 26.55 3.5
-3 8 -3 37.05 4.28
-3 -8 -3 37.15 4.04
-3 -8 -3 36.04 4.19
-3 -8 -4 45.15 4.43
-3 -8 -4 45.05 4.85
-3 8 -4 44.12 4.75
-3 8 -5 -0.01 1.23
-3 -8 -5 0.13 1.02
-3 -8 -5 1.38 1.31
-3 8 -6 15.17 2.87
-3 -8 -6 9.96 2.21
-3 -8 -6 11.06 2.75
-3 8 -7 16.53 3.09
-3 -8 -7 14.84 2.54
-3 -8 -8 52.94 4.91
-3 8 -8 47.3 5.19
-3 9 5 0.47 1.11
-3 9 4 18.46 3.23
-3 9 3 11.71 2.58
3 -9 -3 10.21 2.13
-3 -9 2 123.5 8.48
3 -9 -2 115.79 7.47
3 -9 -1 1.98 1
-3 9 1 1.26 1.15
-3 -9 1 2.22 1.33
-3 -9 0 106.44 7.75
3 -9 0 114.01 7.58
-3 -9 0 107.88 7.17
-3 9 0 106.35 7.48
-3 9 -1 15.14 2.76
-3 -9 -1 14.12 2.76
3 -9 1 12.79 2.55
-3 -9 -1 13.46 2.57
-3 -9 -2 149.5 9.4
-3 -9 -2 165.31 9.58
-3 9 -2 168.75 9.85
-3 9 -3 32.47 4.16
-3 -9 -3 27.95 3.78
-3 -9 -4 91.71 7.34
-3 9 -4 112.76 7.92
-3 9 -5 7.35 2.12
-3 9 -6 6.45 2.09
3 -10 -1 4.84 1.7
3 -10 0 74.29 6.3
-4 0 15 0.49 1.07
-4 0 14 -0.54 0.89
-4 0 13 -0.9 1.14
-4 0 12 8.87 1.93
-4 0 11 -1.56 1.26
-4 0 10 33.3 3.32
-4 0 9 0.62 0.26
-4 0 9 0.32 0.83
-4 0 8 54.23 1.94
-4 0 8 61.17 4.23
-4 0 7 0.27 0.13
-4 0 7 0.39 0.78
-4 0 6 255.48 6.82
-4 0 6 279.97 10.04
-4 0 5 -0.9 0.82
-4 0 5 0.15 0.15
-4 0 4 138.45 6.08
-4 0 3 0.04 0.63
4 0 -3 0.21 0.22
-4 0 2 131 5.67
4 0 -2 140.25 4.59
4 0 -1 0.23 0.23
-4 0 1 1.22 0.7
4 0 0 485.73 13.27
4 0 0 458.17 14.15
-4 0 0 461.17 14.22
4 0 1 0.38 0.51
-4 0 -1 1.09 0.69
4 0 1 0.59 0.4
4 0 2 11.32 1.2
-4 0 -2 11.25 1.53
-4 0 -2 8.75 1.37
4 0 2 10.05 1.27
-4 0 -3 0.18 0.62
-4 0 -4 874.88 23.33
-4 0 -4 942.46 26.73
-4 0 -5 1.23 1.14
-4 0 -5 1.04 1.16
-4 0 -5 0.19 0.34
4 0 6 104.44 5.78
-4 0 -6 91.76 5.88
-4 0 -6 99.79 5.66
-4 0 -7 0.64 0.68
-4 0 -7 1.16 1.06
4 0 7 2.81 1.35
4 0 8 469.83 16.26
-4 0 -8 442.42 14.99
-4 0 -8 445.14 16.53
-4 0 -9 -0.7 1.01
4 0 9 1.18 1.07
-4 0 -9 0.39 0.64
4 0 10 257 11.43
-4 0 -10 249.41 9.86
-4 0 -10 241.38 11.34
4 0 11 -0.29 1.17
-4 0 -11 -0.47 0.77
-4 0 -11 0.79 1.17
4 0 12 219.28 11.08
-4 0 -12 216.02 11.04
4 0 13 -0.44 1.13
-4 0 -13 0.32 1.14
4 0 14 416.73 17.72
-4 0 -14 414.63 17.78
4 0 15 -1.64 1.66
-4 0 -15 -0.65 1.26
-4 1 15 80.14 6.2
-4 -1 14 31.68 3.92
-4 1 14 32.45 3.74
-4 -1 13 8.58 2.12
-4 1 13 7.18 1.93
-4 1 12 223.75 10.15
-4 -1 12 193.57 9.95
-4 1 11 102.33 6.35
-4 -1 11 114.95 6.93
-4 -1 10 16.79 2.46
-4 1 10 19.23 2.49
-4 -1 9 45.23 2.74
-4 1 9 45.11 3.73
-4 -1 9 48.77 4.02
-4 -1 8 193.4 6.52
-4 1 8 174.61 8
-4 -1 8 177.33 8.38
-4 -1 7 59.18 2.82
-4 1 7 63.64 4.12
-4 -1 7 56.8 4.12
-4 -1 6 94.62 3.68
-4 1 6 93.14 5.05
-4 -1 6 92.57 5.17
-4 -1 5 62.79 2.75
-4 1 5 65.52 3.9
-4 -1 5 68.79 4.1
-4 1 4 183.06 7.21
-4 -1 4 175.23 5.74
-4 -1 4 180.17 7.25
-4 1 3 173.77 7.07
-4 -1 3 186.12 5.97
4 -1 -3 186.31 5.14
-4 -1 3 171.83 7.05
-4 -1 3 183.61 6.86
-4 1 2 437.08 14.21
-4 -1 2 467.03 13.11
4 -1 -2 477.99 12.39
-4 -1 2 451.69 14.11
4 1 -2 462.34 13.29
-4 -1 1 176.93 6.71
4 -1 -1 177.62 5.57
-4 -1 1 187.31 6.16
4 1 -1 173.83 6.12
4 1 -1 176.65 6.67
-4 1 1 188.37 7.05
4 -1 0 267.01 7.83
-4 -1 0 248.91 8.17
4 1 0 261.3 8.28
4 1 0 259.05 8.62
-4 1 0 260.79 9.13
-4 -1 0 243.28 8.58
4 1 1 87 3.82
4 1 1 81.76 3.89
-4 1 -1 85.86 4.36
-4 -1 -1 78.4 3.95
4 1 2 81.66 3.92
4 1 2 93.41 4.06
-4 1 -2 87.36 4.23
-4 1 -2 89.41 4.54
-4 -1 -2 80.79 4.05
4 1 3 29.91 2.14
-4 1 -3 27.12 2.43
-4 -1 -3 27.87 2.25
-4 1 -3 30.97 2.28
-4 -1 -3 28.07 2.5
-4 -1 -4 12.95 1.83
-4 1 -4 16.47 2.37
-4 -1 -4 15.77 2.43
-4 1 -4 12.74 1.31
-4 1 -4 12.27 1.43
4 1 4 16.67 1.59
-4 -1 -5 30.49 1.4
-4 1 -5 30.63 2.13
-4 -1 -5 25.65 2.67
-4 -1 -5 30.59 3.33
-4 1 -5 33.1 3.46
-4 1 -5 28.69 2.75
4 1 6 66.2 4.56
4 -1 6 64.2 4.31
-4 -1 -6 68.36 4.43
-4 -1 -6 56.87 4.54
-4 1 -6 67.15 4.15
-4 1 -6 71.71 5.31
-4 1 -7 27 3.34
4 -1 7 36.13 3.28
4 1 7 36.4 3.41
-4 -1 -7 36.31 3.46
-4 -1 -7 35.21 3.09
-4 1 -7 29.85 2.58
4 -1 8 77.31 5.12
4 1 8 77.59 5.31
-4 1 -8 66.9 3.94
-4 -1 -8 72.9 4.89
-4 -1 -8 76.15 4.88
-4 1 -8 71.08 5.64
-4 1 -9 6.78 1.89
4 -1 9 9.29 1.84
4 1 9 12.18 2.15
-4 1 -9 8.83 1.37
-4 -1 -9 8.64 1.7
-4 -1 -9 7.1 1.65
4 -1 10 281.09 11.95
4 1 10 290.42 12.42
-4 1 -10 277.77 9.93
-4 -1 -10 272.26 11.22
-4 -1 -10 272.58 11.45
-4 1 -10 251.68 12.5
-4 1 -11 16.11 2.92
4 1 11 21.98 3.14
4 -1 11 17.36 2.68
-4 -1 -11 17.51 2.4
-4 -1 -11 15.31 2.34
4 -1 12 7.28 1.9
4 1 12 10.45 2.15
-4 -1 -12 6.53 1.7
-4 1 -12 10.51 2.55
4 -1 13 30.53 3.93
4 1 13 30.63 3.93
-4 -1 -13 24.96 3.27
-4 1 -13 23.76 3.79
4 -1 14 68.64 6.12
4 1 14 64.51 6.02
-4 -1 -14 50.25 4.92
-4 1 -14 72.98 6.8
4 -1 15 7.07 2.07
-4 -1 -15 4.43 1.84
-4 1 -15 8.23 2.47
-4 -1 -16 1.53 1.32
-4 2 15 0.2 0.9
-4 2 14 44.9 4.4
-4 -2 14 52.37 5.17
-4 -2 13 23.49 3.34
-4 2 13 23.83 3.11
4 2 -13 26.67 3.5
-4 2 12 239.36 10.69
4 2 -12 242.07 11.27
-4 -2 12 227.89 11.23
-4 -2 11 2.36 1.23
-4 2 11 0.66 0.79
4 2 -11 3.9 1.55
-4 2 10 152.36 7.63
4 2 -10 150.06 7.81
-4 -2 10 155.47 8.22
-4 2 9 161.63 7.79
-4 -2 9 172.42 7.15
-4 -2 9 162.01 8.28
-4 2 8 83.92 5
-4 -2 8 79.42 4.28
-4 -2 8 82.9 5.32
-4 2 7 36.45 3.1
-4 -2 7 38.73 2.71
-4 -2 7 34.82 3.25
-4 2 6 647.96 19.99
-4 -2 6 681.7 19.09
-4 -2 6 655.91 20.57
-4 2 5 200.59 7.86
-4 -2 5 186.71 6.97
-4 -2 5 204.42 8.21
-4 2 4 121.32 5.58
-4 -2 4 120.86 4.86
-4 -2 4 114.81 5.55
-4 -2 4 114.77 5.11
-4 -2 3 15.22 1.76
4 -2 -3 15.19 0.81
-4 -2 3 15.43 1.49
-4 -2 3 19.04 1.66
-4 2 3 16.72 1.85
-4 -2 2 650.85 18.8
-4 -2 2 684.81 19.46
4 2 -2 659.29 19.25
-4 -2 2 703.22 18.76
-4 2 2 677.34 19.8
-4 -2 1 49.98 2.97
-4 -2 1 46.61 2.74
4 2 -1 48.49 2.91
-4 -2 1 49.33 2.55
-4 2 1 49.4 3.22
4 2 -1 52.56 2.93
4 2 0 8.51 1.09
-4 2 0 5.81 1.17
-4 -2 0 7.39 1.08
4 2 0 6.95 1.08
-4 -2 0 8.8 1.15
-4 -2 -1 29.86 2.2
4 2 1 32.66 2.12
-4 2 -1 26.34 2.4
-4 -2 -1 28.69 2.1
-4 2 -2 193.9 7.87
-4 -2 -2 206.18 7.37
4 2 2 203.49 6.94
-4 2 -2 201.81 7.05
-4 -2 -2 192.26 7.06
-4 -2 -3 3.8 0.86
-4 -2 -3 4.86 1.03
-4 -2 -3 3.53 1.41
4 2 3 5.24 0.83
-4 -2 -3 4.83 0.98
-4 2 -3 4.89 0.99
-4 2 -3 4.59 0.85
4 2 4 154.06 5.68
-4 2 -4 148.32 6.01
-4 2 -4 142.82 5.61
-4 -2 -4 144.89 5.95
-4 -2 -4 133.43 7.83
-4 2 -4 162.36 7.87
-4 2 -5 97.3 4.71
-4 2 -5 87.98 4.21
-4 -2 -5 92.8 4.42
-4 -2 -5 87.64 6.1
-4 2 -5 105.22 6.34
4 2 5 92.5 4.17
-4 -2 -6 148.03 6.17
-4 -2 -6 149.43 8.23
-4 2 -6 149.43 6.25
-4 2 -6 152.82 8.38
4 2 6 147.59 5.91
-4 -2 -7 1.58 1.1
-4 2 -7 1.09 0.63
-4 2 -7 -0.86 1.34
4 -2 7 0.18 0.75
4 2 7 2.16 1.06
-4 -2 -7 1.63 0.72
4 -2 8 134.26 6.76
4 2 8 118.96 6.95
-4 2 -8 117.85 5.02
-4 -2 -8 127.5 7.26
-4 -2 -8 118.88 5.79
-4 2 -8 124.49 7.93
-4 2 -9 2.82 1.78
4 -2 9 4.23 1.22
4 2 9 6.18 1.78
-4 2 -9 4.64 0.89
-4 -2 -9 3.67 1.41
-4 -2 -9 3.45 0.95
-4 2 -10 -0.03 1.12
4 -2 10 0.99 1.16
4 2 10 -0.06 0.86
-4 -2 -10 0.26 0.9
-4 -2 -10 0.93 0.75
-4 2 -11 3.63 1.56
4 -2 11 7.68 1.73
4 2 11 1.5 1.12
-4 -2 -11 4.27 1.49
-4 -2 -11 4.91 1.29
-4 2 -12 0.91 1.25
4 -2 12 0.81 0.98
4 2 12 2.04 1.37
-4 -2 -12 0.33 0.68
4 -2 13 17.23 2.87
4 2 13 20.7 3.31
-4 -2 -13 19.35 2.62
-4 2 -13 16.04 3.28
4 -2 14 66.97 5.88
4 2 14 65.49 6.2
-4 2 -14 59.82 6.44
4 -2 15 18.99 3.24
-4 3 15 3.61 1.49
4 3 -14 19.06 3.19
-4 3 14 30.2 3.54
-4 -3 13 3.54 1.59
4 3 -13 3.56 1.59
-4 3 13 4.92 1.52
-4 3 12 229.31 10.5
4 3 -12 242.49 11.34
-4 -3 11 1.57 1.44
-4 3 11 1.47 0.81
4 3 -11 0.55 1.13
-4 -3 10 24.7 3.23
-4 -3 10 23.06 2.63
-4 3 10 27.55 2.99
4 3 -10 25.86 3.11
-4 -3 9 7.21 1.89
-4 3 9 10.01 1.88
-4 -3 9 7.12 1.55
4 3 -9 10.34 1.89
-4 3 8 227.43 9.36
-4 -3 8 218.68 9.04
4 3 -8 228.73 9.59
-4 -3 8 221.29 9.96
-4 3 7 67.99 4.35
-4 -3 7 69.39 4.31
4 3 -7 73.99 4.54
-4 -3 7 66.11 4.73
-4 3 6 37.94 3.04
-4 -3 6 33.73 2.82
-4 -3 6 34.14 3.17
-4 3 5 9.13 1.46
-4 -3 5 8.92 1.58
-4 -3 5 7.15 1.28
-4 3 4 82.27 4.46
-4 -3 4 82.25 4.34
4 -3 -4 80.44 2.75
-4 -3 4 80.76 4.56
-4 -3 4 80.21 4.09
-4 -3 3 262.33 9.38
-4 -3 3 258.57 9.45
-4 -3 3 273.99 8.9
-4 3 3 271.92 9.69
-4 -3 2 228.96 8.48
-4 -3 2 239.72 8.47
-4 -3 2 234.71 7.73
-4 3 2 250.79 9.06
-4 -3 1 98.61 4.5
-4 -3 1 100.83 4.82
-4 -3 1 103.46 3.92
-4 3 1 113.12 5.34
-4 -3 0 311.87 9.97
-4 -3 0 317.92 8.92
-4 3 0 335.19 11.23
-4 -3 -1 182.55 7.18
-4 3 -1 175.32 6.25
-4 3 -1 187 7.73
-4 -3 -1 191.79 5.48
4 3 1 181.73 6.34
-4 -3 -1 182.92 6.54
-4 -3 -2 152.84 6.38
-4 3 -2 151.19 6.47
-4 3 -2 151.17 5.35
4 3 2 150.4 5.39
-4 -3 -2 153.71 5.7
-4 -3 -2 149.33 4.96
-4 -3 -2 144.94 8.07
-4 -3 -3 62.58 3.75
-4 3 -3 71.07 4.04
4 3 3 69.69 3.07
-4 3 -3 64.43 2.99
-4 -3 -3 68.25 3.4
-4 -3 -3 63.44 2.56
-4 -3 -3 56.3 5.01
-4 -3 -4 40.22 2.97
-4 -3 -4 40.05 2.12
-4 3 -4 37.84 2.98
4 3 4 42.18 2.31
-4 3 -4 39.01 2.28
-4 -3 -4 41.76 2
-4 -3 -4 39.16 4.12
-4 3 -4 34.9 3.59
4 3 5 165.37 5.77
-4 -3 -5 162.15 6.95
-4 3 -5 150.78 6.94
-4 -3 -5 163.53 5.48
-4 -3 -5 151.11 8.66
-4 3 -5 157.38 8.44
4 3 6 40.2 2.39
-4 3 -6 38.44 4.04
-4 -3 -6 42.82 2.4
-4 -3 -6 38.48 4.09
-4 3 -6 39.1 2.4
-4 -3 -7 0.54 1.06
-4 3 -7 0.13 0.29
-4 3 -7 0.45 1.11
4 3 7 0.81 0.37
-4 -3 -7 0.78 0.4
4 -3 8 54.05 3.99
4 3 8 65.5 4.98
-4 3 -8 53.51 2.57
-4 -3 -8 55.1 3.25
-4 -3 -8 58.89 5.11
-4 3 -8 48.14 4.92
4 -3 9 186.28 8.49
4 3 9 197.4 9.67
-4 -3 -9 182.14 7.25
-4 -3 -9 169.06 9.5
-4 3 -9 169.99 10.05
4 -3 10 112.27 6.49
4 3 10 109.93 7.23
-4 -3 -10 101.1 7.13
-4 -3 -10 108.4 5.43
-4 3 -10 113.21 8.11
-4 3 -11 14.35 3.06
4 -3 11 18.81 2.65
4 3 11 21.16 3.18
-4 -3 -11 20.83 3.14
-4 3 -12 0.89 1.38
4 -3 12 0.41 0.89
4 3 12 0.88 1.08
4 -3 13 106.15 7.05
4 3 13 97.4 7.53
-4 3 -13 91.52 8.01
-4 4 15 9.41 2.14
-4 4 14 -0.07 0.75
-4 4 13 38.35 3.95
4 4 -13 27.07 3.77
-4 4 12 5.23 1.7
4 4 -12 4.26 1.69
4 4 -11 4.59 1.67
-4 4 11 3.12 1.22
-4 -4 11 2.55 1.23
-4 4 10 5.25 1.38
-4 -4 10 4.3 1.41
4 4 -10 5.65 1.65
-4 4 9 21.84 2.58
-4 -4 9 20.97 2.67
4 4 -9 17.03 2.46
-4 4 8 37.71 3.27
-4 -4 8 37.53 3.48
4 4 -8 38.66 3.47
-4 -4 8 37.96 3.77
-4 4 7 72.83 4.57
-4 -4 7 73.3 4.91
4 4 -7 81.67 4.91
-4 -4 7 83.05 5.4
-4 4 6 159.31 7.02
4 -4 -6 152.8 4.53
-4 -4 6 146.66 7.25
4 4 -6 162.58 7.03
-4 -4 6 158.89 7.62
4 -4 -5 145.85 4.72
-4 -4 5 142.19 6.99
-4 -4 5 146.12 7.02
-4 4 5 153.62 6.73
-4 -4 4 123.09 6.17
4 -4 -4 122.87 4.5
-4 -4 4 124.48 6.02
-4 -4 4 125.35 5.53
-4 4 4 115.2 5.77
-4 -4 3 131.21 6.37
-4 -4 3 136.63 6.12
-4 -4 3 131.29 5.45
-4 4 3 150.02 6.51
-4 -4 2 84.59 4.72
-4 -4 2 81.32 4.16
-4 -4 2 78.1 3.53
-4 4 2 73.69 4.42
-4 -4 1 6.44 0.76
-4 4 1 5.18 1.24
-4 -4 1 4.5 0.89
-4 -4 1 7.33 1.29
-4 -4 0 287.97 9.18
-4 -4 0 288.82 10.47
-4 4 0 317.61 10.82
-4 4 0 315.33 10.88
-4 -4 0 269.15 7.71
-4 -4 0 288.78 12.02
-4 -4 -1 135.31 6.39
-4 4 -1 139.76 6.56
-4 4 -1 148.43 4.74
-4 4 -1 139.68 6.6
-4 -4 -1 150.11 8.17
-4 -4 -1 134.99 5.25
-4 -4 -2 5.51 1.76
-4 -4 -2 9.33 1.07
-4 4 -2 7.18 0.71
-4 -4 -2 9.37 1.5
-4 4 -2 7.69 1.55
-4 -4 -3 197.39 8.27
-4 4 -3 213.66 8.7
-4 4 -3 203.49 6.18
-4 -4 -3 201.73 10.24
-4 -4 -4 447.87 14.89
-4 4 -4 466.06 15.39
-4 -4 -4 466.38 13.21
4 4 4 441.89 12.47
-4 -4 -4 442.03 17.42
-4 4 -4 447.56 16.7
-4 -4 -5 214.87 8.65
4 4 5 206.92 6.41
-4 -4 -5 190.91 10.39
-4 4 -5 212.23 10.25
-4 -4 -6 15.68 2.75
-4 4 -6 10.1 2.07
-4 -4 -6 11.72 1.79
-4 -4 -6 13.08 0.85
-4 4 -6 10.58 0.93
-4 -4 -7 153.95 9.19
-4 4 -7 160.3 9.27
-4 -4 -8 301.55 14.05
-4 4 -8 319.59 14.23
4 -4 9 40.36 3.33
4 4 9 31.18 3.73
-4 -4 -9 32.67 4.08
4 4 10 161.05 9.1
-4 -4 -10 144.3 9.35
-4 4 -10 155.56 9.79
4 4 11 124.61 8.27
-4 -4 -11 126.33 8.65
-4 4 -11 126.56 8.97
-4 4 -12 74.41 7.07
4 4 12 87.65 6.96
4 5 -13 43.66 4.88
-4 5 12 31.04 3.47
-4 -5 12 25.06 3.31
4 5 -12 21.67 3.29
-4 5 11 265.45 11.32
-4 -5 11 239.93 11.61
4 5 -11 278.16 12.5
-4 5 10 1.04 0.99
-4 -5 10 1.91 1.22
4 5 -10 3.05 1.48
-4 5 9 78.14 5.1
-4 -5 9 79.21 5.74
4 5 -9 85.52 5.78
-4 -5 8 4.3 1.55
-4 -5 8 4.03 1.45
-4 5 8 3.18 1.14
4 5 -8 0.78 0.88
-4 -5 7 181.81 9
4 5 -7 185.11 8.33
-4 -5 7 184.61 9
-4 5 7 191.89 8.21
-4 -5 6 44.03 3.84
4 5 -6 42.1 3.23
-4 -5 6 31.19 3.17
-4 5 6 33.17 2.95
4 -5 -5 218.57 7.3
-4 -5 5 215.84 9.78
4 5 -5 215.45 8.4
-4 -5 5 217.91 9.28
-4 5 5 232.12 8.98
-4 -5 4 3.38 1.11
-4 5 4 1.96 0.78
-4 -5 4 2.71 1.2
4 -5 -4 2.1 0.76
-4 5 3 4.42 1.11
-4 -5 3 6.51 1.58
-4 -5 3 5.41 1.21
4 -5 -3 6.99 1.25
-4 -5 2 168.27 7.89
-4 5 2 169.42 7.77
-4 -5 2 163.63 6.66
-4 5 2 172.81 7.48
-4 -5 2 156.45 8.29
-4 -5 1 287.15 9.64
-4 -5 1 284.51 11.31
-4 5 1 286.58 11.2
-4 5 1 309.27 11.1
-4 -5 1 305.19 12.51
-4 -5 0 7.43 1.01
-4 -5 0 5.27 1.69
-4 5 0 5.89 0.5
-4 5 0 7.78 1.64
-4 -5 0 6.02 1.38
-4 -5 -1 53.91 3.94
-4 5 -1 51.8 3.94
-4 -5 -1 48.18 4.5
-4 -5 -1 45.93 2.49
-4 -5 -2 45.13 3.57
-4 -5 -2 52.66 3.9
-4 5 -2 51.83 4.06
-4 -5 -2 52 2.49
-4 -5 -2 48.58 4.65
-4 -5 -3 121.94 6.43
-4 -5 -3 120.6 5.92
-4 -5 -3 134.14 8.16
-4 -5 -4 23.82 3.45
-4 5 -4 26.74 3.32
-4 5 -4 25.77 2.94
-4 -5 -4 31.09 2.99
-4 -5 -5 13.16 2.59
-4 5 -5 8.27 2.2
-4 -5 -5 12.41 1.87
-4 -5 -6 41.19 3.56
-4 -5 -6 41.45 4.63
-4 5 -6 43.36 4.58
-4 5 -7 37.07 4.29
-4 -5 -7 29 3.04
-4 -5 -7 33.67 4.33
-4 -5 -8 80.36 5.29
-4 -5 -8 71.16 6.43
-4 5 -8 66.12 5.93
-4 5 -9 16.13 2.95
-4 -5 -9 18.19 3.34
-4 -5 -10 104.79 8.25
-4 5 -10 110.75 8.16
4 5 11 63.7 5.9
-4 5 -11 59.8 6.01
-4 6 13 76.37 6.12
-4 -6 12 52.76 5.13
-4 6 12 50.68 4.69
4 6 -12 54.02 5.26
-4 6 11 -0.56 0.99
-4 -6 11 1.36 1.33
4 6 -11 0.1 0.98
-4 6 10 17.79 2.54
-4 -6 10 18.14 2.88
4 6 -10 22.89 3.14
-4 -6 9 188.09 9.98
-4 6 9 185.67 8.75
4 6 -9 194.76 9.46
-4 6 9 194.74 8.71
-4 6 8 14.37 2.07
-4 -6 8 12.35 2.23
-4 -6 8 8.83 1.92
4 6 -8 14.14 2.23
-4 -6 7 68.4 5.35
4 6 -7 67.8 4.58
-4 6 7 58.4 4.17
-4 -6 7 69.5 5.11
-4 -6 6 125.37 7.62
4 6 -6 131.36 6.39
-4 6 6 135.01 6.6
-4 -6 6 139.14 7.27
-4 -6 5 298.88 12.87
4 6 -5 307.52 10.79
-4 6 5 317.24 11.52
-4 -6 5 295.78 11.74
-4 -6 5 321.9 12.85
-4 -6 4 15.67 2.03
-4 -6 4 12.85 2.22
-4 6 4 11.48 1.78
-4 6 4 12.3 2.07
-4 -6 4 15.78 2.57
4 -6 -4 14.24 1.75
-4 -6 3 69.15 5.24
-4 6 3 76.83 5.16
4 -6 -3 75.24 4.51
-4 -6 3 68.77 4.19
-4 6 3 71.75 4.56
-4 -6 3 65.75 5.16
-4 -6 2 156.79 8.15
-4 6 2 158.91 7.9
-4 -6 2 154.73 6.44
-4 6 2 155.6 7.31
-4 -6 2 155.65 8.43
-4 -6 1 109.79 4.77
-4 -6 1 108.07 6.51
-4 6 1 109.55 6.37
-4 -6 1 106.87 6.92
-4 -6 0 14.02 2.49
-4 6 0 12.58 2.14
-4 -6 0 15.3 2.38
-4 6 -1 242.49 10.68
-4 -6 -1 243.58 10.53
-4 -6 -1 232.05 11.35
-4 6 -2 95.33 6.13
-4 -6 -2 87.82 5.7
-4 -6 -2 90.08 6.61
-4 -6 -3 23.93 3.46
-4 6 -3 25.74 3.38
-4 -6 -3 26.37 3.07
-4 6 -3 26.86 3.2
-4 -6 -4 15.79 3
-4 6 -4 18.21 3.02
-4 -6 -4 22.83 2.8
-4 -6 -5 314.31 12.47
-4 -6 -5 305.74 14.32
-4 6 -5 293.96 13.68
-4 6 -6 15.64 2.92
-4 -6 -6 14.1 2.28
-4 -6 -6 19.81 3.46
-4 6 -7 10.28 2.42
-4 -6 -7 16.9 2.47
-4 -6 -7 12.77 2.9
-4 6 -8 3.5 1.82
-4 -6 -8 2.11 0.77
-4 -6 -8 0.95 0.98
-4 6 -9 22.89 3.62
-4 -6 -9 24.7 4.06
-4 6 -10 12.38 2.82
-4 -6 -10 12.94 3.01
-4 -7 11 54.74 5.36
-4 7 10 17.69 2.76
-4 -7 10 16.63 3.06
-4 7 9 40.66 4.21
-4 -7 9 38.48 4.44
-4 -7 9 38.35 4.12
-4 -7 8 82.39 6.43
-4 7 8 73.84 5.67
-4 -7 8 80.97 5.87
-4 7 7 4.41 1.47
-4 -7 7 2.32 1.23
-4 -7 7 2.25 1.09
-4 -7 6 11.95 2.26
-4 7 6 13.86 1.99
-4 -7 6 13.08 2.2
-4 7 6 11.95 2.22
-4 -7 6 9.91 2.27
-4 -7 5 43.35 4.44
-4 7 5 32.05 3.56
-4 7 5 43.52 3.49
-4 -7 5 43.99 4.16
-4 7 4 32.38 3.56
-4 -7 4 31.41 3.78
-4 7 4 31.37 2.98
-4 -7 4 36.33 3.84
-4 7 3 49.71 4.35
-4 -7 3 41.77 4.32
4 -7 -3 41.62 3.56
-4 -7 3 39.41 4.07
-4 -7 2 7.62 1.83
-4 7 2 8.72 2
-4 -7 2 7.3 1.86
4 -7 -2 7.74 1.62
-4 7 1 178.63 9.18
-4 -7 1 163.7 8.98
-4 -7 1 171.12 9.26
-4 -7 0 38.08 3.99
-4 7 0 34.88 3.78
-4 -7 0 38.27 4.1
-4 7 -1 49.96 4.6
-4 -7 -1 51.64 4.65
-4 -7 -1 48.13 4.77
-4 -7 -2 0.98 1.43
-4 7 -2 -0.74 1.04
-4 7 -2 -0.03 0.93
-4 -7 -2 2.79 1.51
-4 -7 -3 37.72 3.9
-4 7 -3 41.62 4.57
-4 -7 -3 32.64 4.1
-4 7 -4 31.4 4.03
-4 -7 -4 39.05 3.96
-4 -7 -4 30.21 4.1
-4 -7 -5 55.06 4.74
-4 7 -5 53.96 5.37
-4 -7 -5 46.12 5.18
-4 7 -6 4.27 1.96
-4 -7 -6 5.7 1.75
-4 -7 -6 1.93 1.4
-4 7 -7 5.16 1.89
-4 -7 -7 5.13 1.58
-4 -7 -7 5.3 1.92
-4 7 -8 -0.66 1.31
-4 -7 -8 1.48 1.14
-4 -7 -8 -1.41 2.03
-4 -7 -9 148.46 8.53
-4 8 7 95.61 6.88
-4 -8 7 104.89 7.64
-4 8 6 11.84 2.44
-4 -8 6 7.07 2.12
-4 8 5 34.5 3.93
-4 -8 5 30.15 4.02
-4 8 4 34.21 3.97
-4 -8 4 32.19 4.04
-4 8 3 168.75 9.32
-4 -8 3 140.72 8.94
-4 -8 3 154.33 8.62
-4 -8 2 2.87 1.44
-4 8 2 3.53 1.61
4 -8 -2 4.21 1.44
-4 -8 1 9.09 2.2
-4 -8 1 9.65 2.2
-4 8 1 9.14 2.17
4 -8 -1 6.62 1.68
-4 8 0 36.28 4.3
-4 -8 0 36.64 4.2
-4 -8 0 38.02 4.19
-4 -8 -1 123.84 8.07
-4 -8 -1 135.83 8.47
-4 8 -1 135.48 8.76
-4 8 -2 38.73 4.55
-4 -8 -2 42.26 4.45
-4 -8 -2 31.79 4.08
-4 -8 -3 231.93 11.56
-4 -8 -3 225.1 11.96
-4 8 -3 227.81 12.13
-4 8 -4 28.89 4.12
-4 -8 -4 28.99 3.69
-4 -8 -4 28.64 4.12
-4 -8 -5 228.6 11.69
-4 -8 -5 245.36 13.13
-4 8 -5 254.66 13.22
-4 8 -6 16.57 3.1
-4 -8 -6 20.83 3.6
-4 -9 1 118.35 7.82
4 -9 0 11.19 2.28
-4 -9 0 12.98 2.54
-4 9 -1 3.43 1.75
4 -9 1 4.02 1.49
-4 -9 -1 6.58 1.91
-4 9 -2 0.91 1.12
-4 -9 -2 0.73 1.04
-4 -9 -3 76.54 6.69
-4 9 -3 79.29 7
-5 0 13 79.31 6.2
-5 0 12 0.11 1.04
-5 0 11 100.17 6.65
-5 0 10 0.1 0.84
-5 0 9 553.72 18.99
-5 0 8 0.38 0.79
-5 0 7 100.83 5.86
-5 0 6 1.24 0.82
-5 0 5 724.74 22.03
-5 0 4 0.89 0.78
-5 0 3 12.45 1.74
5 0 -3 14.77 1.2
5 0 -2 -0.21 0.28
-5 0 2 0.28 0.69
5 0 -1 526.52 14.69
-5 0 1 500.78 16.07
5 0 0 0.27 0.38
-5 0 0 1.11 0.82
5 0 1 351.42 10.9
-5 0 -1 350.23 12.01
-5 0 -2 0.65 0.77
-5 0 -3 341.55 12
-5 0 -4 3.44 1.48
-5 0 -5 198.3 6.6
-5 0 -5 191.66 9.35
-5 0 -5 189.06 9.35
-5 0 -6 0.17 1.05
-5 0 -6 -0.31 0.98
-5 0 -7 184.18 8.93
-5 0 -7 191.01 9.58
-5 0 -8 0.31 0.73
-5 0 -8 -0.26 1
-5 0 -9 -0.13 1.06
-5 0 -9 2.45 1.06
-5 0 -10 0.97 0.92
5 0 10 -0.43 1.2
-5 0 -10 0.41 0.65
-5 0 -11 0.49 0.97
5 0 11 3.63 1.51
-5 0 -11 2.96 1.17
5 0 12 3.49 1.82
-5 0 -12 1.08 0.87
-5 0 -12 1.09 1.44
5 0 13 13.44 2.95
-5 0 -13 9.68 2.36
5 0 14 1.4 1.35
-5 0 -14 -0.69 1.14
-5 0 -15 3.38 1.84
-5 1 14 16.75 2.85
-5 1 13 53.07 4.93
-5 -1 13 54.62 5.19
-5 1 12 1.62 1.23
-5 -1 12 6.14 1.89
-5 1 11 140.52 7.97
-5 -1 11 147.02 8.36
-5 1 10 82.49 5.66
-5 -1 10 77.87 5.68
-5 1 9 118.63 6.67
-5 -1 9 102.47 6.52
-5 -1 8 37.02 1.91
-5 1 8 37.41 3.46
-5 -1 8 33.18 3.39
-5 -1 7 50.41 2.34
-5 1 7 51.27 3.98
-5 -1 7 50.13 4.06
-5 -1 6 39.59 2.07
-5 1 6 42.85 3.49
-5 -1 6 43.18 3.6
-5 1 5 3.44 1.23
-5 -1 5 3.09 0.57
-5 -1 5 3.38 1.25
-5 1 4 11.21 1.71
-5 -1 4 12.51 1.16
-5 -1 4 10.6 1.69
-5 1 3 184.03 7.73
-5 -1 3 183.52 6.24
-5 -1 3 176.67 7.51
5 -1 -3 180.98 5.48
5 1 -3 187.39 6.62
-5 -1 2 61.75 3.89
-5 -1 2 69.06 3.25
5 -1 -2 66.63 2.77
5 1 -2 67.56 3.34
-5 1 2 65.96 4.1
-5 -1 1 31.18 2.61
-5 -1 1 32.67 2.19
5 -1 -1 31.42 1.86
5 1 -1 32.78 2.2
-5 1 1 27.56 2.57
5 -1 0 20.18 1.55
5 1 0 18.28 1.69
-5 1 0 19.65 2.11
-5 -1 0 22.68 2.16
5 -1 1 246.04 7.81
-5 1 -1 229.36 9
-5 1 -2 103.44 5.45
-5 -1 -2 100.77 5.05
-5 -1 -3 14.64 1.79
-5 1 -3 13.69 1.92
-5 -1 -4 14.94 2.17
-5 1 -4 17.41 2.53
-5 1 -4 15.99 1.6
-5 1 -5 41.89 2.67
-5 -1 -5 37.93 1.87
-5 -1 -5 33.87 3.35
-5 1 -5 41.16 4
-5 -1 -5 43.85 4.26
-5 1 -6 69.14 3.81
-5 -1 -6 75.31 5.08
-5 -1 -6 67.74 5.42
-5 1 -6 72.52 5.64
-5 1 -6 74.25 4.99
-5 -1 -7 246.79 10.47
-5 -1 -7 224.35 10.77
-5 1 -7 234.17 9.82
-5 1 -7 247.2 11.76
-5 -1 -8 1.37 0.97
-5 -1 -8 0.5 0.82
-5 1 -8 0.27 0.75
-5 1 -8 -1.57 1.32
-5 -1 -9 -1.3 1.11
-5 1 -9 0.16 1.11
-5 1 -9 0.25 0.62
-5 -1 -9 0.74 0.92
5 -1 10 60.42 5.2
5 1 10 60.26 5.34
-5 1 -10 54.91 3.87
-5 -1 -10 53.49 4.57
-5 -1 -10 53.17 4.53
-5 1 -10 62.9 5.75
5 -1 11 189.93 10.2
5 1 11 211.2 10.94
-5 1 -11 176.23 7.89
-5 -1 -11 173.81 9.06
-5 -1 -11 195.24 9.69
-5 1 -11 185.79 10.78
-5 1 -12 2.12 1.41
5 -1 12 2.2 1.68
5 1 12 2.52 1.54
-5 -1 -12 1.89 1.06
-5 -1 -12 -0.75 1.13
5 -1 13 3.82 1.81
5 1 13 7.73 2.38
-5 -1 -13 5.84 1.62
-5 1 -13 7.88 2.5
5 -1 14 32.72 4.45
-5 -1 -14 35.32 4.14
-5 1 -14 37.73 4.99
-5 2 14 12.97 2.47
-5 -2 13 1.66 1.28
-5 2 13 1.95 1.5
-5 -2 12 7.83 2.05
-5 2 12 6.97 1.93
-5 -2 11 1.56 1.35
-5 2 11 0.16 1.05
-5 2 10 2.9 1.36
-5 -2 10 0.85 1.21
-5 2 9 177.19 8.53
-5 -2 9 162.69 6.5
-5 -2 9 174.07 8.88
-5 2 8 30.64 3.18
-5 -2 8 33.37 2.37
-5 -2 8 35.73 3.62
-5 2 7 11.2 1.91
-5 -2 7 12.63 2.11
-5 -2 7 10.55 1.31
-5 2 6 64.19 4.34
-5 -2 6 58.03 3.19
-5 -2 6 59.62 4.34
-5 2 5 294.42 10.84
-5 -2 5 270.38 9.16
-5 -2 5 289.31 10.97
-5 -2 4 0.53 0.5
-5 -2 4 0.89 0.73
-5 2 4 0.46 0.77
5 -2 -3 125.59 3.86
-5 -2 3 121.55 5.07
-5 -2 3 112.46 5.72
-5 2 3 120.04 6
5 -2 -2 17.53 1.2
-5 -2 2 14.7 1.57
-5 -2 2 17.68 1.96
5 2 -2 18.02 1.84
-5 -2 2 20.87 1.86
-5 2 2 19.86 2.28
-5 2 1 2.1 0.91
-5 -2 1 1.37 0.59
-5 -2 1 1.63 0.59
-5 -2 1 2.01 0.9
-5 2 0 2.02 0.9
-5 -2 0 4.74 1.02
-5 -2 0 4.22 1.1
-5 -2 -1 641.23 18.34
-5 2 -1 624.44 19.44
-5 -2 -1 600.29 18.4
-5 -2 -2 84.75 4.36
-5 2 -2 87.64 5.04
-5 -2 -2 80.27 4.3
-5 -2 -3 1.28 0.69
-5 -2 -3 2.65 0.88
-5 2 -3 2.97 0.91
-5 2 -4 55.51 3.37
-5 -2 -4 48.11 3.45
-5 -2 -4 46.36 4.55
-5 2 -5 584.67 17.61
-5 -2 -5 567.73 14.82
-5 -2 -5 610.38 18.08
-5 -2 -5 567.37 20.95
-5 2 -5 620.88 20.8
-5 -2 -6 21.49 3.26
-5 2 -6 25.94 3.52
-5 2 -6 22.45 2.33
-5 -2 -6 26.2 2.44
-5 2 -6 25.67 2.62
-5 -2 -7 16.74 1.99
-5 -2 -7 16.07 2.73
-5 2 -7 16.17 2.88
-5 2 -7 14.77 1.97
-5 -2 -8 36.34 4.09
-5 2 -8 38.53 4.49
-5 -2 -8 42.34 3.29
-5 2 -8 42.87 3.07
-5 2 -9 155.07 6.47
-5 -2 -9 145.6 8.6
-5 -2 -9 150.91 7.25
-5 2 -9 157.67 9.69
-5 2 -10 1.13 1.4
5 -2 10 0.95 0.86
5 2 10 1.42 1.64
-5 -2 -10 0.94 1.1
-5 -2 -10 0.7 0.6
5 -2 11 242.99 11.6
5 2 11 243.85 12.33
-5 -2 -11 223.66 11.36
-5 -2 -11 241.14 10.31
-5 2 -11 252.97 13.27
-5 2 -12 39.88 5.1
5 -2 12 44.36 4.63
5 2 12 45.95 5.09
-5 -2 -12 41.55 4.38
5 -2 13 55.73 5.43
5 2 13 52.47 5.63
-5 2 -13 51.06 5.92
5 -2 14 4.84 1.94
-5 3 14 137.39 8.5
-5 3 13 16.07 2.76
-5 -3 13 5.66 1.93
-5 3 12 17.69 2.77
-5 -3 12 18.63 3.06
-5 3 11 50.99 4.51
-5 -3 11 45.93 4.67
-5 3 10 193.05 9.35
-5 -3 10 180.18 9.76
-5 3 9 41.1 3.82
-5 -3 9 44.77 3.4
-5 -3 9 48.24 4.52
-5 3 8 22.05 2.67
-5 -3 8 18.07 2.1
-5 -3 8 19.52 2.76
-5 3 7 2.84 1.11
-5 -3 7 0.76 0.62
-5 -3 7 1.08 0.97
-5 3 6 99.4 5.7
-5 -3 6 97.02 5
-5 -3 6 109.9 6.18
-5 3 5 27.6 2.76
-5 -3 5 27.27 2.38
-5 -3 5 28.36 2.89
5 -3 -4 165.67 4.62
-5 -3 4 173.76 7
5 -3 -4 166.66 4.73
-5 -3 4 173.36 7.65
-5 3 4 172.81 7.6
-5 -3 3 75 4.13
-5 -3 3 69.75 4.33
-5 -3 3 75.62 3.86
-5 3 3 73.56 4.58
-5 -3 2 201.11 7.89
-5 -3 2 194.81 7.62
-5 -3 2 188.2 6.9
-5 3 2 203.48 8.42
-5 -3 1 74.12 4.06
-5 -3 1 64.49 3.84
-5 -3 1 68.33 3.27
-5 3 1 77.67 4.67
-5 -3 0 268.61 9.65
-5 -3 0 280.89 8.34
-5 3 0 279.61 10.55
-5 -3 -1 186.1 7.63
-5 3 -1 178.71 7.02
-5 -3 -1 203.63 6.25
-5 3 -1 200.89 8.57
-5 -3 -1 183.19 7.27
-5 -3 -2 185.54 7.72
-5 3 -2 208.3 8.19
-5 3 -2 195.98 7.11
-5 3 -2 201.18 8.66
-5 -3 -2 186.63 7.37
-5 -3 -2 192.98 6.92
-5 -3 -2 189.94 9.85
-5 -3 -3 61.37 3.87
-5 3 -3 56.96 3.8
-5 3 -3 55.71 3.17
-5 -3 -3 63.59 3.69
-5 -3 -3 58.91 3.05
-5 -3 -3 56.45 5.11
-5 -3 -4 82.21 4.68
-5 3 -4 80.32 4.64
-5 3 -4 75.48 3.8
-5 -3 -4 74.83 3.49
-5 -3 -4 84.01 6.44
-5 3 -4 79.9 5.78
-5 -3 -5 1.79 0.54
-5 -3 -5 0.59 1.08
-5 3 -5 1.11 1.06
-5 3 -5 2.23 1.03
-5 -3 -6 12.07 2.64
-5 3 -6 13.16 2.69
-5 3 -6 14.95 1.85
-5 -3 -6 13.35 1.38
-5 -3 -7 126.06 5.2
-5 -3 -7 105.47 7.64
-5 3 -7 116.41 5.27
-5 3 -7 122.58 8.14
-5 -3 -8 92.3 7.09
-5 3 -8 114.67 8.01
-5 3 -9 2.77 1.62
-5 -3 -9 0.01 1.23
-5 3 -10 2.31 1.37
-5 -3 -10 2.55 1.26
5 -3 11 199.82 9.96
5 3 11 207.68 11.25
-5 -3 -11 183.29 10.71
-5 3 -11 198.78 11.8
5 3 12 92.53 7.4
-5 -3 -12 85.14 6.94
-5 3 -12 84.71 7.64
-5 4 13 41.22 4.36
-5 4 12 42.73 4.33
-5 -4 12 41.99 4.69
-5 4 11 93.73 6.27
-5 -4 11 75.31 6.29
-5 4 10 35.94 3.65
-5 -4 10 23.04 2.79
-5 -4 10 29.59 3.75
-5 4 9 290.51 12.08
-5 -4 9 302.83 11.78
-5 -4 9 280.04 12.72
-5 4 8 203.98 9.18
-5 -4 8 194.42 8.77
-5 -4 8 182.54 9.5
-5 4 7 68.05 4.8
-5 -4 7 82.41 5.05
-5 -4 7 79.94 5.54
-5 -4 6 125.1 6.44
-5 -4 6 127.15 6.96
-5 4 6 120.86 6.45
-5 -4 5 371.87 13.3
-5 -4 5 376.56 13.74
-5 4 5 382.08 13.52
-5 -4 4 289.67 10.99
5 -4 -4 298.24 8.68
-5 -4 4 279.55 10.98
-5 4 4 286.91 11.12
-5 -4 3 26.38 2.61
-5 -4 3 23.73 2.45
-5 -4 3 28.87 2.22
-5 4 3 28.87 2.85
-5 -4 2 141.34 6.42
-5 -4 2 145.03 6.82
-5 -4 2 144.91 5.57
-5 4 2 158.95 7.26
-5 -4 1 138.69 6.23
-5 -4 1 144.03 6.84
-5 4 1 154.48 7.31
-5 -4 1 154.71 5.32
-5 4 0 -0.2 0.67
-5 -4 0 -0.39 0.79
-5 -4 0 0.47 0.49
-5 -4 -1 54.85 3.76
-5 4 -1 49.08 3.7
-5 4 -1 47.08 2.61
-5 4 -1 45.21 3.73
-5 -4 -1 47.28 3.02
-5 -4 -1 45.15 1.89
-5 -4 -1 48.15 4.56
-5 -4 -2 173.56 7.72
-5 4 -2 180.4 8.01
-5 4 -2 176.42 6.08
-5 -4 -2 170.09 6.71
-5 -4 -2 160.18 9.33
-5 -4 -3 173.59 7.75
-5 4 -3 166.93 7.85
-5 -4 -3 180.55 6.9
5 4 3 169.57 6.19
-5 -4 -3 177.98 9.95
-5 -4 -4 8.89 2.22
-5 4 -4 8.92 2.18
-5 -4 -4 10.27 1.72
-5 4 -4 6.85 1.48
-5 -4 -5 67.5 4.48
-5 4 -5 69.85 4.78
-5 -4 -5 60.68 5.76
-5 4 -5 67.58 5.72
-5 -4 -6 143.25 9.33
-5 4 -6 158.19 9.27
-5 -4 -7 71.03 6.28
-5 4 -7 66.16 6.05
-5 4 -8 0.09 1.08
-5 -4 -8 2.17 1.71
-5 4 -9 -0.36 1.42
-5 -4 -9 0.32 1.37
-5 4 -10 0.52 1.47
-5 -4 -10 -2.12 1.63
-5 4 -11 6.83 2.42
-5 -4 -11 7.47 2.34
-5 -4 -12 3.53 1.74
-5 5 12 8.37 1.94
-5 5 11 104.71 6.8
-5 -5 11 88.92 6.96
-5 -5 10 10.68 2.01
-5 -5 10 9.66 2.07
-5 5 10 9.98 2.03
-5 -5 9 4.24 1.35
-5 -5 9 6.42 1.82
-5 5 9 7.66 1.73
-5 -5 8 5.76 1.74
-5 -5 8 6.3 1.58
-5 5 8 6.63 1.56
-5 -5 7 90.66 5.89
-5 -5 7 81.76 5.82
-5 5 7 85.16 5.46
-5 -5 6 28.93 3.28
-5 5 6 25.37 2.84
-5 -5 6 28.14 3.18
-5 -5 5 3.87 1.26
-5 5 5 2.95 1.11
-5 -5 5 1.51 0.95
-5 -5 4 13.12 2.02
-5 5 4 14.77 2.16
-5 -5 4 8.59 1.73
-5 -5 3 174.25 8.42
-5 -5 3 184.75 7.95
-5 5 3 178.17 8.23
-5 5 2 1.01 0.79
-5 -5 2 0.75 0.72
-5 -5 2 0.58 0.98
-5 -5 1 23.89 2.21
-5 -5 1 28.92 3.51
-5 -5 1 29.81 3.01
-5 5 1 26.93 2.91
-5 5 1 28.22 3.01
-5 -5 0 20.43 3.05
-5 -5 0 21.2 2.57
-5 5 0 20.92 2.6
-5 5 0 24.26 2.76
-5 -5 0 19.97 1.91
-5 -5 -1 147.63 7.22
-5 5 -1 135.22 7.16
-5 -5 -1 131.39 5.53
-5 -5 -1 130.83 8.29
-5 -5 -2 4.78 1.79
-5 -5 -2 2.17 0.66
-5 -5 -2 3.58 1.25
-5 5 -2 1.45 1.07
-5 -5 -3 20.15 3.15
-5 5 -3 21.27 2.77
-5 -5 -3 21.56 2.59
-5 -5 -4 5.72 2.29
-5 5 -4 6.71 1.85
-5 5 -4 4.65 1.42
-5 -5 -4 8.21 1.66
-5 -5 -5 64.48 4.67
-5 -5 -5 64.26 6.09
-5 5 -5 65.07 5.78
-5 -5 -6 117.49 6.7
-5 -5 -6 110.03 8.2
-5 5 -6 125.64 8.43
-5 -5 -7 86.61 5.67
-5 -5 -7 78.25 6.97
-5 5 -7 85.87 7.01
-5 5 -8 34.41 4.53
-5 -5 -8 31.34 4.52
-5 5 -9 30.4 4.27
-5 -5 -9 27.15 4.36
-5 -5 -10 180.61 11.63
-5 5 -10 177.26 11.21
-5 -6 11 -3.55 1.62
-5 -6 10 20.25 3.05
-5 6 10 23.88 3.03
-5 -6 10 20.18 3.11
-5 -6 9 4.28 1.42
-5 6 9 4.58 1.44
-5 -6 9 0.44 0.93
-5 -6 8 53.06 4.88
-5 -6 8 47.28 4.57
-5 6 8 59.18 4.56
-5 6 7 5.8 1.59
-5 -6 7 2.05 1.14
-5 -6 7 4.2 1.52
-5 -6 6 130.69 7.79
-5 -6 6 124.5 7.23
-5 6 6 142.33 7.27
-5 6 5 2.07 0.94
-5 -6 5 2.81 1.04
-5 -6 5 1.72 1.29
-5 -6 4 31.63 3.67
-5 -6 4 36.54 3.28
-5 -6 4 32.46 3.57
-5 6 4 29.45 3.25
-5 6 4 34.27 3.33
-5 6 3 16.66 2.36
-5 -6 3 14.27 2.58
-5 -6 3 11.82 2.28
-5 6 3 13.07 2.3
-5 -6 3 15.49 2.02
-5 -6 2 199.49 9.71
-5 6 2 198.34 9.5
-5 6 2 204.49 9.25
-5 -6 2 209.61 10.6
-5 -6 1 14.84 2.69
-5 6 1 10.76 2.05
-5 -6 1 8.14 1.87
-5 -6 0 66.27 5.08
-5 6 0 61.53 4.9
-5 -6 0 62.09 5.5
-5 -6 -1 157.55 8.3
-5 6 -1 167.19 8.67
-5 -6 -1 160.72 9.48
-5 -6 -2 263.39 11.56
-5 6 -2 274.32 12.02
-5 -6 -2 280.33 13.3
-5 -6 -3 30.06 4.06
-5 -6 -3 38.51 3.81
-5 6 -3 29.7 3.6
-5 6 -3 41.64 4.63
-5 6 -4 182.81 9.55
-5 -6 -4 169.45 8.78
-5 -6 -4 184.46 10.71
-5 6 -4 174.73 10.26
-5 -6 -5 117.15 6.94
-5 -6 -5 114.81 8.43
-5 6 -5 101.28 7.72
-5 -6 -6 72.44 5.38
-5 -6 -6 75.05 6.88
-5 6 -6 80.68 6.85
-5 6 -7 36.14 4.74
-5 -6 -7 37.97 3.88
-5 -6 -7 43.21 5.32
-5 -6 -8 106.22 6.91
-5 -6 -8 106.2 8.68
-5 6 -8 110.69 8.42
-5 6 -9 18.32 3.37
-5 -6 -9 21.67 4.11
-5 -7 10 93.94 7.04
-5 -7 10 95.65 7.05
-5 -7 9 0.95 0.94
-5 -7 9 -0.63 1.09
-5 -7 8 0.82 1.1
-5 -7 7 12.58 2.48
-5 7 7 20.3 3.09
-5 -7 6 65.93 5.64
-5 7 6 67.23 5.49
-5 7 6 57.52 4.55
-5 -7 6 71.11 5.73
-5 7 5 21.62 2.72
-5 -7 5 22.64 3.27
-5 7 5 23.68 3.23
-5 -7 5 23.37 3.3
-5 -7 4 133.53 8.25
-5 7 4 135.98 7.91
-5 7 4 128.36 7.08
-5 -7 4 127.13 8.1
-5 -7 3 11.69 2.53
-5 7 3 10.21 2.27
-5 -7 3 13.43 2.57
-5 7 3 11.32 2.04
-5 -7 2 103.99 7.04
-5 7 2 95.6 6.62
-5 -7 2 102.62 7.21
-5 -7 1 16.67 2.92
-5 7 1 19.2 2.89
-5 -7 1 16.19 2.75
-5 -7 0 146.32 8.58
-5 7 0 157.12 8.87
-5 -7 0 151.05 9.17
-5 -7 -1 2.02 1.48
-5 7 -1 3.14 1.45
-5 -7 -1 1.18 1.19
-5 7 -2 106.98 7.33
-5 -7 -2 103.86 6.96
-5 -7 -2 102.3 7.61
-5 -7 -3 4.51 1.86
-5 7 -3 4.94 1.96
-5 7 -3 6.48 2.14
-5 -7 -3 4.4 1.64
-5 -7 -4 58.56 5.07
-5 -7 -4 53.89 5.68
-5 7 -4 51.91 5.55
-5 7 -5 21.59 3.57
-5 -7 -5 12.83 2.43
-5 -7 -5 17.45 3.3
-5 7 -6 1.9 1.35
-5 -7 -6 3.76 1.56
-5 -7 -6 4.04 1.77
-5 -8 5 18.92 3.18
-5 -8 4 181.43 10.52
-5 -8 4 194.75 10.38
-5 -8 3 9.55 2.26
-5 -8 3 10.55 2.42
-5 8 2 83.31 6.57
-5 -8 2 88.75 6.91
-5 -8 2 89.76 6.84
-5 -8 1 2.72 1.32
-5 8 1 2.21 1.52
-5 -8 1 4.75 1.66
-5 -8 0 12.7 2.77
-5 8 0 5.72 1.85
-5 -8 0 11.35 2.54
-5 -8 -1 5.97 1.96
-5 8 -1 1.32 1.36
-5 -8 -1 1.95 1.5
-5 -8 -2 165.32 9.87
-5 -8 -2 177.58 10.48
-5 8 -2 190.7 11.24
-5 8 -3 13.84 3.05
-5 -8 -3 10.9 2.67
-5 8 -4 3.58 1.79
-5 -8 -4 4.67 1.95
-5 -9 1 0.87 1.05
-5 -9 0 65.74 6.08
-6 0 12 9.08 2.21
-6 0 11 0.69 0.92
-6 0 10 1.63 1.19
-6 0 9 1.35 0.97
-6 0 8 166.11 8.61
-6 0 7 0.92 1.02
-6 0 6 2.21 1
-6 0 5 -0.12 0.82
-6 0 4 61.54 4.35
6 0 -3 0.59 0.48
-6 0 3 1.54 1.15
6 0 -2 128.4 4.99
-6 0 2 123.19 6.33
6 0 -1 0.61 0.51
-6 0 1 0.81 0.77
-6 0 0 0.46 0.81
-6 0 -1 1.24 0.94
-6 0 -2 270.19 10.61
-6 0 -3 -0.54 0.99
-6 0 -4 53.24 4.53
-6 0 -5 2.45 1.54
-6 0 -5 0.93 1.23
-6 0 -5 0.41 0.56
-6 0 -6 100.03 4.44
-6 0 -6 110.37 7.17
-6 0 -6 101.37 6.92
-6 0 -7 -0.52 1.48
-6 0 -7 -0.53 1.02
-6 0 -8 66.66 5.25
-6 0 -8 62.45 5.52
-6 0 -9 -0.59 1.14
-6 0 -9 1.81 0.97
-6 0 -10 182.55 9.04
-6 0 -10 178.15 10.12
-6 0 -11 0.18 1.17
-6 0 -11 0.79 1.09
-6 0 -12 81.44 6.74
-6 0 -13 1.49 1.48
-6 0 -14 68.44 6.48
-6 1 12 90.56 6.86
-6 -1 12 102.7 7.38
-6 -1 11 27.46 3.58
-6 1 11 26.25 3.47
-6 -1 10 0.74 1.16
-6 1 10 3.46 1.47
-6 1 9 117.59 7.17
-6 -1 9 116.18 7.3
-6 1 8 30.26 3.36
-6 -1 8 24.98 3.17
-6 1 7 38.68 3.71
-6 -1 7 44.15 4.03
-6 -1 6 113.34 4.2
-6 1 6 119.44 6.59
-6 -1 6 124.21 6.89
-6 1 5 173.5 8.21
-6 -1 5 174.33 8.27
-6 -1 4 4.69 1.36
-6 1 4 1.28 0.87
-6 -1 3 154.43 7.34
6 -1 -3 156.97 5.18
6 1 -3 154.49 6.17
-6 1 3 157.38 7.43
-6 -1 2 411.44 13.85
6 -1 -2 394.76 11.45
6 1 -2 377.83 12.23
-6 1 2 393.29 13.91
6 -1 -1 74.23 3.47
-6 1 1 79.9 4.95
-6 -1 1 76.11 4.64
-6 1 0 -0.6 1.1
6 -1 0 0.25 0.36
-6 -1 0 -0.05 0.7
-6 1 -1 131.35 6.7
-6 -1 -1 128.88 6.35
-6 1 -2 229.42 9.53
-6 -1 -2 209.74 8.93
-6 1 -3 112.26 6.3
-6 -1 -3 120.64 6.21
-6 1 -4 185.93 7.15
-6 -1 -4 169.46 8.54
-6 1 -5 131.28 5.72
-6 -1 -5 135.16 4.82
-6 -1 -5 122.52 7.18
-6 1 -5 133.95 7.98
-6 -1 -5 114.17 7.8
-6 -1 -6 19.74 2.8
-6 1 -6 21.73 3.29
-6 -1 -6 19.73 3.18
-6 1 -6 19.13 2.73
-6 1 -6 19.45 1.97
-6 -1 -7 40.65 3.93
-6 -1 -7 43.91 4.62
-6 1 -7 43.31 4.72
-6 1 -7 43.43 4.01
-6 -1 -8 312.36 14.08
-6 -1 -8 336.1 13.5
-6 1 -8 317.49 12.81
-6 1 -8 327.18 14.95
-6 -1 -9 44.51 4.51
-6 1 -9 36.73 3.49
-6 -1 -9 44.45 4.22
-6 1 -9 47.48 5.17
-6 -1 -10 0.24 1
-6 1 -10 1.26 1.24
-6 1 -10 0.73 0.82
-6 -1 -10 0.68 0.91
-6 1 -11 10.06 2.35
-6 -1 -11 11.4 2.37
-6 -1 -11 7.6 1.96
-6 -1 -12 89.97 6.48
-6 1 -12 88.6 7.54
-6 1 -13 13.49 2.85
-6 2 12 160.02 9.24
-6 -2 12 158.08 9.71
-6 2 11 34.32 3.97
-6 -2 11 36.03 4.25
-6 2 10 41.01 4.15
-6 -2 10 40.41 4.36
-6 -2 9 15.67 2.65
-6 2 9 16.57 2.59
-6 2 8 473.77 17.49
-6 -2 8 505.84 18.26
-6 2 7 22.7 2.92
-6 -2 7 18.06 1.65
-6 -2 7 18.03 2.66
-6 2 6 92.22 5.66
-6 -2 6 78.25 3.86
-6 -2 6 88.02 5.78
-6 -2 5 2.42 0.75
-6 -2 5 3.85 1.42
-6 2 5 3.83 1.35
-6 -2 4 312.81 10.37
-6 -2 4 319.85 12.18
-6 2 4 325.28 12.26
-6 -2 3 11.43 1.86
-6 -2 3 10.34 1.31
-6 2 3 9.83 1.78
-6 -2 2 2.93 0.8
6 -2 -2 3.85 0.61
-6 2 2 2.78 1.21
-6 -2 2 1.8 0.82
-6 -2 1 17.67 1.84
6 -2 -1 16.6 1.44
-6 2 1 18.82 2.37
-6 -2 1 17.76 2.14
-6 -2 0 220.47 8.18
6 -2 0 205.05 7.29
-6 2 0 226.89 9.4
-6 -2 0 201.37 8.5
-6 2 -1 0.4 0.9
-6 -2 -1 0.86 0.75
-6 2 -2 63.66 4.58
-6 -2 -2 59.15 4.05
-6 2 -3 45.07 3.32
-6 2 -3 45.6 3.94
-6 -2 -3 42.32 3.41
-6 -2 -3 48.13 3.66
-6 2 -4 249.21 9.28
-6 -2 -4 234.28 9.76
-6 -2 -4 227.95 11.86
-6 -2 -5 6.58 1.39
-6 2 -5 6.37 1.94
-6 -2 -5 1.85 1.28
-6 2 -5 6.62 1.33
-6 -2 -6 10.29 1.72
-6 -2 -6 12.97 2.8
-6 2 -6 13.19 2.67
-6 2 -6 10.6 1.98
-6 2 -6 12.65 1.8
-6 -2 -7 10.14 1.68
-6 -2 -7 8.24 2.17
-6 2 -7 9.11 2.51
-6 2 -7 6.95 1.64
-6 -2 -8 29.38 3.93
-6 2 -8 38.65 4.61
-6 -2 -8 31.96 3.07
-6 2 -8 34.45 3.17
-6 -2 -9 1.92 1.45
-6 2 -9 5.08 2.16
-6 2 -10 10.91 2.57
-6 -2 -10 13.07 2.77
-6 2 -11 7.79 2.58
-6 -2 -11 5.05 1.82
-6 2 -12 18.88 3.66
-6 -2 -12 23.55 3.55
-6 -2 -13 2.23 1.42
-6 3 12 102.6 7.24
-6 3 11 58.64 5.29
-6 -3 11 71.05 6.14
-6 3 10 19.06 2.89
-6 -3 10 15.75 2.87
-6 3 9 1.48 0.93
-6 -3 9 3.04 1.75
-6 3 8 16.77 2.58
-6 -3 8 10.95 2.21
-6 -3 7 30.68 3.5
-6 -3 7 26.85 2.43
-6 3 7 30.06 3.24
-6 3 6 183.39 8.71
-6 -3 6 178.76 7.4
-6 -3 6 182.66 9.05
-6 -3 5 1.29 0.68
-6 -3 5 -0.4 0.83
-6 3 5 0.92 1.04
-6 -3 4 -0.29 0.96
-6 -3 4 0.28 0.59
-6 3 4 0.1 0.78
-6 -3 3 8.81 1.63
-6 -3 3 8.35 1.34
-6 3 3 6.68 1.5
-6 -3 2 481.52 16.18
-6 -3 2 484.13 15.56
-6 3 2 512.03 17.01
-6 3 1 16.35 2.29
-6 -3 1 18.41 2.05
-6 -3 1 19.12 2.23
-6 3 0 -0.13 0.89
-6 -3 0 -0.13 0.56
-6 -3 0 0.35 0.71
-6 -3 -1 4.84 1.12
-6 -3 -1 3.68 1.06
-6 -3 -2 162.64 7.28
-6 3 -2 172.35 7.64
-6 3 -2 161.54 8.1
-6 -3 -2 167.96 7.25
-6 -3 -2 148.67 6.49
-6 -3 -3 4.89 1.23
-6 -3 -3 1.99 0.66
-6 -3 -3 1.63 1.09
-6 3 -3 4.15 1.17
-6 3 -4 87.88 5.18
-6 -3 -4 77.77 6.61
-6 -3 -5 6.61 2.25
-6 3 -5 8.16 2.15
-6 3 -5 4.49 1.25
-6 -3 -6 43.3 4.92
-6 3 -6 35.87 4.42
-6 3 -6 47.28 3.82
-6 3 -6 42.14 3.52
-6 -3 -7 50.48 5.51
-6 3 -7 58.57 5.8
-6 -3 -8 243.21 12.97
-6 3 -8 244.52 13.05
-6 3 -9 11.12 2.75
-6 -3 -9 10.32 2.58
-6 3 -10 23.67 4.02
-6 -3 -10 25.74 3.83
-6 -3 -11 76.16 6.79
-6 3 -11 65.34 6.73
-6 -3 -12 84.5 7.27
-6 4 12 2.13 1.38
-6 4 11 21.87 3.22
-6 -4 11 30.62 4.09
-6 -4 10 2.9 1.49
-6 4 10 2.44 1.14
-6 -4 9 8.84 2.08
-6 4 9 10.14 2.14
-6 4 8 44 4.11
-6 -4 8 37.84 4.11
-6 -4 8 39.61 3.42
-6 -4 7 84.55 5.18
-6 -4 7 87.86 6.17
-6 4 7 93.28 5.98
-6 -4 6 7.96 1.58
-6 4 6 11.21 2.07
-6 -4 6 8.87 1.93
-6 -4 5 10.25 1.78
-6 4 5 15.66 2.33
-6 -4 5 10.63 2.02
-6 4 4 0.63 1.16
-6 -4 4 0.65 0.85
-6 -4 4 -0.14 0.77
-6 -4 3 13.35 2.02
-6 4 3 13.65 2.23
-6 -4 3 14.76 2.03
-6 -4 2 92.65 5.36
-6 -4 2 94.63 5.39
-6 4 2 97.08 5.95
-6 -4 1 27.28 2.64
-6 -4 1 31.66 2.96
-6 4 1 32.09 3.28
-6 4 0 3.68 1.3
-6 -4 0 6.9 1.48
-6 -4 0 5.28 1.18
-6 -4 -1 96.72 5.46
-6 4 -1 93.17 5.64
-6 4 -1 94.54 5.96
-6 -4 -1 84.17 4.77
-6 -4 -2 173.82 8.03
-6 4 -2 184.28 8.42
-6 -4 -2 169.52 7.33
-6 -4 -2 173.45 10.09
-6 -4 -3 74.59 4.91
-6 4 -3 84.91 5.4
-6 -4 -3 77.25 4.5
-6 -4 -3 70.65 6.26
-6 -4 -4 11.69 2.61
-6 4 -4 13.63 2.77
-6 -4 -4 11.4 1.9
-6 4 -4 12.59 2.17
-6 -4 -5 21.61 3.64
-6 4 -5 26.06 3.91
-6 4 -5 24.98 3.03
-6 -4 -6 99.53 8.02
-6 4 -6 108.07 7.89
-6 -4 -7 9.45 2.44
-6 4 -7 11.41 2.7
-6 -4 -8 91.96 7.74
-6 4 -8 101.11 8.03
-6 4 -9 40.48 5.22
-6 -4 -9 43.61 5.46
-6 -4 -10 68.72 6.87
-6 4 -10 70.27 6.97
-6 5 11 0.02 0.83
-6 -5 10 2.99 1.37
-6 5 10 4.24 1.46
-6 -5 9 128.01 8.38
-6 5 9 141.96 8.16
-6 -5 8 13.84 2.67
-6 -5 8 17.46 2.52
-6 5 8 17.05 2.67
-6 -5 7 33.73 3.76
-6 -5 7 33.61 3.46
-6 5 7 32.47 3.52
-6 5 6 6.27 1.61
-6 -5 6 5.65 1.45
-6 -5 6 8.65 1.89
-6 -5 5 133.19 7.42
-6 -5 5 149.76 7.95
-6 5 5 142.61 7.72
-6 5 4 0.99 1.32
-6 -5 4 -0.13 0.79
-6 -5 4 -0.76 0.85
-6 -5 3 170.62 8.02
-6 -5 3 163.6 8.31
-6 5 3 175.23 8.62
-6 -5 2 30.8 2.94
-6 5 2 28.98 3.24
-6 -5 2 34.67 3.42
-6 -5 1 263.65 10.17
-6 -5 1 270.06 11.28
-6 5 1 270.5 11.53
-6 5 1 300.14 12.08
-6 -5 1 252.29 12.47
-6 -5 0 -1.11 1.19
-6 -5 0 0.32 0.75
-6 5 0 -0.25 0.93
-6 -5 0 1.28 0.86
-6 5 0 -0.07 0.93
-6 -5 -1 302.62 12.25
-6 5 -1 307.99 12.55
-6 -5 -1 307.12 14.26
-6 -5 -2 4.2 1.76
-6 -5 -2 1.78 0.92
-6 5 -2 2.72 1.17
-6 -5 -3 53.4 4.37
-6 5 -3 58.95 4.81
-6 -5 -3 54.13 5.59
-6 -5 -4 46.14 5.21
-6 -5 -4 42.63 3.9
-6 5 -4 47.19 4.35
-6 5 -4 52.12 5.42
-6 -5 -5 275.09 11.72
-6 5 -5 281.68 12.39
-6 -5 -5 257.57 13.96
-6 5 -5 297.35 14.24
-6 -5 -6 0.63 1.04
-6 5 -6 1.86 1.64
-6 -5 -7 3.51 1.87
-6 5 -7 -1.27 1.58
-6 -5 -8 76.34 7.34
-6 5 -8 86.83 7.61
-6 -5 -9 145.59 10.5
-6 6 10 3.67 1.51
-6 -6 10 5.39 1.84
-6 -6 9 47.15 4.88
-6 6 9 45.57 4.46
-6 -6 8 109.87 7.09
-6 -6 8 100.45 7.06
-6 6 8 94.91 6.56
-6 -6 7 200.52 10.14
-6 -6 7 188.46 9.95
-6 6 7 207.6 10.02
-6 6 6 4.75 1.55
-6 -6 6 3.09 1.2
-6 -6 6 5.4 1.46
-6 -6 5 52.75 4.52
-6 6 5 55.82 4.69
-6 -6 4 84.81 6.1
-6 6 4 86.22 5.89
-6 -6 3 74.78 5.65
-6 6 3 69.81 5.43
-6 6 3 70.06 5.29
-6 -6 3 67.75 5.85
-6 6 2 2.11 1.39
-6 -6 2 1.91 1.36
-6 -6 2 2.44 1.22
-6 6 2 2.61 1.25
-6 -6 1 105.17 6.85
-6 6 1 115.19 7.08
-6 6 1 109.84 6.87
-6 -6 1 116.38 7.99
-6 -6 0 86.2 6.06
-6 6 0 89.45 6.28
-6 -6 0 92.5 7.14
-6 -6 -1 4.36 2.03
-6 -6 -1 3.23 1.41
-6 6 -1 0.83 1.09
-6 -6 -2 9.44 2.29
-6 6 -2 10.33 2.21
-6 -6 -2 6.55 1.75
-6 -6 -3 105.98 6.88
-6 6 -3 116.84 7.5
-6 -6 -3 114.06 8.44
-6 6 -3 117.12 8.46
-6 -6 -4 67.54 5.28
-6 6 -4 60.26 5.36
-6 -6 -4 60.06 6.15
-6 6 -4 62.2 6.23
-6 -6 -5 14.23 3.17
-6 6 -5 15.56 2.97
-6 -6 -5 15.27 2.52
-6 -6 -6 6.17 2.15
-6 6 -6 2.99 1.91
-6 -6 -6 4.06 1.5
-6 -7 8 0.53 1.1
-6 7 7 12.2 2.26
-6 -7 7 6.98 1.91
-6 -7 6 37.19 4.41
-6 -7 6 35.96 4.28
-6 7 6 43.07 4.21
-6 7 5 6.82 1.73
-6 -7 5 11.82 2.65
-6 -7 5 10.48 2.25
-6 7 4 1.09 1.01
-6 -7 4 2.81 1.4
-6 -7 4 -0.04 1.02
-6 -7 3 39.2 4.41
-6 7 3 39.25 4.22
-6 7 3 36.03 3.79
-6 -7 3 41.88 4.69
-6 -7 2 74.74 6.16
-6 7 2 77.56 6.12
-6 -7 2 86.3 6.92
-6 -7 1 19.67 3.26
-6 7 1 14.05 2.65
-6 -7 1 23.43 3.32
-6 -7 0 0.97 1.17
-6 7 0 3.42 1.57
-6 -7 0 2.19 1.25
-6 -7 -1 44.18 4.98
-6 7 -1 44.54 4.75
-6 -7 -1 35.55 4.12
-6 -7 -2 15.81 3.11
-6 7 -2 19.95 3.23
-6 -7 -2 15.09 2.67
-6 -7 -3 2.59 1.34
-6 7 -3 6.12 2.28
-6 7 -3 4.25 1.77
-6 -7 -3 5.73 1.85
-6 -7 -4 10.09 2.56
-6 -8 4 4.83 1.74
-6 -8 3 5.31 1.78
-6 -8 2 16.32 3.17
-6 -8 1 43.8 4.98
-6 -8 0 6.09 2.2
-7 0 10 2.03 1.45
-7 0 9 62.14 5.45
-7 0 8 1.54 1.09
-7 0 7 224.42 10.79
-7 0 6 0.4 1.13
-7 0 5 55.74 4.68
-7 0 4 -0.91 0.93
-7 0 3 226.97 10.04
-7 0 2 1.32 1.14
-7 0 1 0.01 0.79
-7 0 0 -0.3 0.99
-7 0 -1 327.29 12.75
-7 0 -2 -1.11 1.1
-7 0 -3 11.97 2.16
-7 0 -4 -0.8 1
-7 0 -5 272.63 12.71
-7 0 -6 -1.32 1.58
-7 0 -6 -0.71 1.34
-7 0 -7 13.99 2.7
-7 0 -7 7.34 2.05
-7 0 -8 0.08 1.11
-7 0 -8 -0.46 0.95
-7 0 -9 115.01 7.51
-7 0 -9 98.51 7.49
-7 0 -10 -1.12 1.18
-7 0 -10 1.78 1.52
-7 0 -11 84.01 7
-7 1 10 100.62 7.1
-7 -1 10 91.66 7.02
-7 1 9 35.13 4.05
-7 -1 9 36.44 4.21
-7 1 8 7.53 1.85
-7 -1 8 5.12 1.69
-7 1 7 32.85 3.72
-7 -1 7 36.65 3.99
-7 1 6 49.05 4.4
-7 -1 6 49.99 4.51
-7 1 5 269.69 11.64
-7 -1 5 274.48 11.76
-7 -1 4 37.96 3.72
-7 1 4 34.96 3.57
-7 1 3 1.97 1.22
-7 -1 3 -0.31 0.94
-7 1 2 48.06 4.13
-7 -1 2 53.11 4.23
-7 1 1 280.16 11.49
-7 -1 1 270.17 11.12
-7 1 0 19.45 2.58
-7 -1 0 16.49 2.34
-7 1 -1 135.26 7.29
-7 -1 -1 123.27 6.78
-7 1 -2 35.25 3.55
-7 -1 -2 35.3 3.41
-7 1 -3 131.5 7.44
-7 -1 -3 136.12 7.27
-7 -1 -4 18.89 2.77
-7 1 -4 20.05 2.18
-7 1 -5 282.94 9.99
-7 -1 -5 246.54 11.73
-7 1 -5 268.35 12.92
-7 -1 -5 260.86 13.31
-7 -1 -6 18.91 2.86
-7 1 -6 27.48 3.78
-7 -1 -6 22.79 3.69
-7 1 -6 21.54 3.18
-7 -1 -7 31.83 3.73
-7 1 -7 41.28 4.86
-7 -1 -7 38.16 4.68
-7 1 -7 34.56 3.93
-7 -1 -8 33.25 3.79
-7 -1 -8 38 4.51
-7 1 -8 31.44 4.25
-7 1 -8 33.69 3.74
-7 -1 -9 74.23 6.34
-7 1 -9 66.7 5.24
-7 1 -9 73.9 6.77
-7 1 -10 21.08 3.77
-7 -1 -10 21.16 3.43
-7 1 -11 9.28 2.68
-7 -1 -11 6.86 1.93
-7 1 -12 31.39 4.53
-7 2 10 1.93 1.53
-7 -2 10 0.39 1.34
-7 2 9 42.49 4.43
-7 -2 9 40.32 4.52
-7 2 8 5.39 1.65
-7 -2 8 7.25 1.99
-7 -2 7 -0.51 0.95
-7 2 7 -0.5 1.08
-7 -2 6 7.43 2.01
-7 2 6 5.42 1.56
-7 -2 5 -0.09 1.04
-7 2 5 0.96 0.73
-7 -2 4 -0.1 0.88
-7 -2 4 0.19 0.45
-7 2 4 1.18 0.82
-7 2 3 4.71 1.51
-7 -2 3 3.69 1.26
-7 2 2 15.2 2.37
-7 -2 2 15.93 2.31
-7 2 1 51.15 4.36
-7 -2 1 57.72 4.34
-7 2 0 25.25 2.99
-7 -2 0 15.6 2.23
-7 2 -1 41.68 3.97
-7 -2 -1 42.62 3.63
-7 2 -2 0.86 0.94
-7 -2 -2 0.23 0.71
-7 -2 -3 10.66 1.94
-7 -2 -3 11.59 2.02
-7 2 -3 15.07 2.06
-7 2 -3 12.83 2.33
-7 -2 -4 5.58 1.49
-7 -2 -4 5.57 2
-7 2 -4 4.5 1.14
-7 2 -5 1.04 1.19
-7 -2 -5 -0.3 1.39
-7 2 -5 1.18 0.81
-7 -2 -6 -0.33 1.13
-7 2 -6 3.19 1.79
-7 2 -6 1.09 1.07
-7 2 -6 0.14 0.75
-7 -2 -7 30.65 4.2
-7 2 -7 34.73 4.58
-7 2 -7 27.22 3.29
-7 -2 -8 17.16 3.32
-7 2 -8 17.06 3.39
-7 -2 -9 42.77 5.11
-7 2 -9 36.27 4.86
-7 2 -10 3.83 2.06
-7 -2 -10 3.73 1.46
-7 -2 -11 111.62 8.32
-7 2 -11 126.08 9.46
-7 -2 -12 10.18 2.57
-7 3 10 0.82 1.03
-7 -3 10 2.84 1.51
-7 -3 9 8.38 2.19
-7 3 9 9.99 2.31
-7 3 8 126.52 7.8
-7 -3 8 126.15 8.23
-7 -3 7 26.07 3.58
-7 3 7 25.47 3.32
-7 -3 6 81.31 6.04
-7 3 6 88.68 6.08
-7 -3 5 124.48 5.98
-7 -3 5 131.12 7.62
-7 3 5 145.47 7.87
-7 -3 4 195.27 9.42
-7 -3 4 188.96 7.86
-7 3 4 192 9.39
-7 3 3 7.42 1.95
-7 -3 3 10.93 1.66
-7 -3 3 10.85 2.08
-7 -3 2 130.15 7.05
-7 -3 2 137.26 6.48
-7 3 2 143.05 7.75
-7 -3 1 77.02 4.59
-7 3 1 74.54 5.42
-7 -3 1 68.45 4.83
-7 -3 0 64.59 4.28
-7 3 0 63.57 5.01
-7 -3 0 54.62 4.23
-7 3 -1 42.33 4.1
-7 -3 -1 40.64 3.59
-7 3 -2 187.94 8.48
-7 3 -2 182.18 9.26
-7 -3 -2 158.56 7.9
-7 -3 -3 8.94 1.77
-7 -3 -3 10.59 2.56
-7 3 -3 12.18 1.99
-7 -3 -4 1.32 1.45
-7 3 -4 1.52 1
-7 3 -5 149.12 7.52
-7 3 -5 148.61 9.52
-7 3 -6 217.31 9.58
-7 -3 -6 184.13 11.63
-7 3 -6 193.93 11.51
-7 -3 -7 16.2 3.26
-7 3 -7 21.75 3.76
-7 -3 -8 -0.25 1.41
-7 3 -8 0.21 1.34
-7 -3 -9 58.84 6.26
-7 3 -9 56.31 6.26
-7 -3 -10 50.99 5.81
-7 3 -10 54.8 6.3
-7 4 9 20.11 3.06
-7 -4 9 18.61 3.22
-7 4 8 8.56 2.12
-7 -4 8 10.95 2.57
-7 -4 7 103.54 7.17
-7 4 7 97.56 6.73
-7 -4 6 71.94 5.61
-7 4 6 62.16 5.18
-7 -4 5 9.71 2.08
-7 4 5 11.7 2.31
-7 -4 5 6.51 1.46
-7 -4 4 32.03 3.48
-7 -4 4 33.12 3.13
-7 4 4 30.13 3.44
-7 -4 3 111.51 6.69
-7 -4 3 116.89 6.29
-7 4 3 113.17 6.98
-7 -4 2 39.51 3.65
-7 -4 2 38.99 3.45
-7 4 2 40.06 3.99
-7 4 1 10.31 2.1
-7 -4 1 9.72 1.74
-7 -4 1 9.4 1.77
-7 -4 0 44.46 3.71
-7 4 0 39.9 4.09
-7 -4 0 41.35 3.57
-7 -4 -1 243.18 10.36
-7 4 -1 259.73 11.08
-7 4 -1 267.81 11.84
-7 -4 -1 243.73 10.1
-7 -4 -1 231.11 12.45
-7 -4 -2 133.65 6.91
-7 4 -2 119.32 6.94
-7 -4 -2 107.98 6.12
-7 -4 -2 117.65 8.47
-7 -4 -3 6.17 2.09
-7 4 -3 3.78 1.56
-7 -4 -4 43.36 5.3
-7 4 -4 49.4 4.31
-7 4 -4 55.37 5.67
-7 4 -5 135.5 7.75
-7 -4 -5 130.61 9.57
-7 4 -5 151.69 9.93
-7 -4 -6 14.38 3.31
-7 4 -6 14.12 3.14
-7 4 -6 18.19 2.69
-7 -4 -7 2.72 1.56
-7 4 -7 7.13 2.45
-7 4 -8 48.9 5.92
-7 -4 -8 59.37 6.45
-7 -5 9 38.07 4.63
-7 5 8 4.49 1.73
-7 -5 8 5.22 1.91
-7 5 7 7.77 1.99
-7 -5 7 6.89 2.02
-7 5 6 2.07 1.4
-7 -5 6 6.21 1.99
-7 -5 6 2.59 1.08
-7 -5 5 166.53 8.91
-7 -5 5 164.89 8.39
-7 5 5 156.3 8.79
-7 -5 4 51.37 4.46
-7 -5 4 45.74 4.14
-7 5 4 49.59 4.62
-7 -5 3 0.4 0.97
-7 5 3 -0.32 1.08
-7 -5 3 0.02 0.91
-7 5 2 12.37 2.45
-7 -5 2 12.33 2.12
-7 -5 2 7 1.59
-7 -5 1 128.55 7.29
-7 5 1 129.77 7.62
-7 5 1 134.94 7.96
-7 -5 1 113.28 8.19
-7 -5 0 0.82 0.97
-7 -5 0 2.18 1.16
-7 5 0 -0.26 0.8
-7 5 0 1 1.01
-7 -5 -1 10.52 2.61
-7 -5 -1 11 2.08
-7 5 -1 11.66 2.21
-7 -5 -2 32.01 4.37
-7 5 -2 36.78 3.86
-7 -5 -2 31.74 3.39
-7 -5 -3 70.29 5.28
-7 5 -3 74.44 5.73
-7 -5 -3 68.54 6.57
-7 -5 -4 76.87 5.59
-7 5 -4 69.65 5.64
-7 -5 -4 63.51 6.52
-7 5 -4 72.59 6.82
-7 5 -5 67.02 5.67
-7 -5 -5 74.39 7.09
-7 5 -5 72.43 6.98
-7 -5 -6 29.4 4.54
-7 5 -6 24.12 4.13
-7 6 7 4.14 1.55
-7 6 6 24.62 3.33
-7 -6 6 17.93 2.81
-7 6 5 -0.21 0.79
-7 -6 5 -0.01 1
-7 6 4 1.56 1.35
-7 -6 4 -0.25 0.92
-7 6 3 9.22 2.18
-7 -6 3 8.98 2.48
-7 -6 3 10.4 2.19
-7 6 3 12.08 2.43
-7 -6 2 1.93 1.45
-7 -6 2 1.65 1.02
-7 6 2 4.38 1.63
-7 6 2 2.47 1.37
-7 -6 1 45.89 4.48
-7 6 1 42.99 4.44
-7 6 1 40.94 4.39
-7 -6 1 51.7 5.46
-7 -6 0 8.65 2.35
-7 -6 0 6.63 1.82
-7 6 0 6.21 1.8
-7 -6 -1 1.59 1.28
-7 -6 -1 3.68 1.63
-7 6 -1 0.27 0.89
-7 -6 -2 5.96 1.88
-7 -6 -2 3.5 1.47
-7 6 -2 4.71 1.86
-7 -6 -3 7.43 2.2
-7 -6 -3 4.39 1.49
-7 6 -3 8.01 2.05
-7 6 -4 2.46 1.32
-7 -6 -4 4.38 1.6
-7 -7 4 158.66 9.6
-7 7 4 169.79 9.44
-7 -7 3 6.92 1.99
-7 7 3 4.9 1.59
-8 0 8 47.73 4.99
-8 0 7 -0.16 1.1
-8 0 6 10.93 2.25
-8 0 5 -1.82 1.39
-8 0 4 15.41 2.6
-8 0 3 -1.25 1.21
-8 0 2 22.26 3
-8 0 1 0.48 0.96
-8 0 0 3.7 1.43
-8 0 -1 1.37 1.22
-8 0 -2 20.5 2.89
-8 0 -3 0.83 1.01
-8 0 -4 20.13 3.3
-8 0 -5 -0.13 1.1
-8 0 -5 0.57 1.33
-8 0 -6 -0.57 1.14
-8 0 -6 0.13 1.2
-8 0 -7 -0.67 1.48
-8 0 -7 0.98 1.32
-8 0 -8 207.55 11.84
-8 0 -8 233.3 12.29
-8 0 -9 1.16 1.22
-8 1 8 152.38 9.28
-8 -1 8 150.32 9.36
-8 -1 7 35.81 4.26
-8 1 7 29.83 3.82
-8 1 6 46.71 4.6
-8 -1 6 48.96 4.88
-8 -1 5 106.21 7.08
-8 1 5 103.7 6.93
-8 1 4 168.59 9.11
-8 -1 4 166.22 9.02
-8 1 3 29.92 3.56
-8 -1 3 32.82 3.65
-8 1 2 4.23 1.63
-8 -1 2 6.56 1.83
-8 1 1 66.84 5.32
-8 -1 1 67.73 5.26
-8 1 0 38.47 4.01
-8 -1 0 47.29 4.27
-8 -1 -1 31.39 3.5
-8 1 -1 33.67 3.76
-8 1 -2 75.31 5.79
-8 -1 -2 70.79 5.4
-8 1 -3 104.84 6.98
-8 -1 -3 108.17 6.89
-8 -1 -4 41.1 4.31
-8 1 -4 45.83 4.98
-8 1 -5 2.42 1.65
-8 -1 -5 2.86 1.73
-8 1 -6 21.26 3.59
-8 -1 -6 17.13 3.29
-8 1 -6 21.31 3.38
-8 1 -7 46.81 5.43
-8 -1 -7 41.73 5.25
-8 1 -7 47.44 4.99
-8 -1 -8 9.09 2.48
-8 1 -8 5.9 2.05
-8 -1 -9 1.01 1.37
-8 1 -9 4.56 1.93
-8 -1 -10 1.05 1.45
-8 1 -10 2.45 1.96
-8 -2 8 40.09 4.66
-8 -2 7 0.81 1.07
-8 2 7 4.15 1.63
-8 -2 6 87.81 6.58
-8 2 6 79.01 6.14
-8 2 5 27.36 3.49
-8 -2 5 28.52 3.66
-8 2 4 2.63 1.17
-8 -2 4 6.88 1.94
-8 2 3 16.63 2.65
-8 -2 3 15.86 2.6
-8 2 2 345.1 14.06
-8 -2 2 316.13 13.46
-8 -2 1 28.32 3.3
-8 2 1 35.89 3.89
-8 2 0 24.34 3.32
-8 -2 0 18.5 2.64
-8 2 -1 22.11 3.12
-8 -2 -1 22.89 2.98
-8 2 -2 281.2 12.58
-8 -2 -2 266.35 11.74
-8 -2 -3 23.32 3.03
-8 2 -3 29.6 3.03
-8 2 -4 9.33 2.48
-8 -2 -4 4.96 2.21
-8 2 -4 7.28 1.58
-8 2 -5 22.63 3.73
-8 -2 -5 14.84 3.16
-8 -2 -6 109.88 8.77
-8 2 -6 109.06 8.5
-8 2 -6 105.88 7.43
-8 -2 -7 2.7 1.98
-8 2 -7 0.19 1.97
-8 -2 -8 152.41 10.55
-8 2 -8 152.45 10.59
-8 -2 -9 35.69 4.93
-8 2 -9 50.69 6.04
-8 -3 8 152.53 9.6
-8 -3 7 14.45 2.89
-8 3 7 12.09 2.41
-8 -3 6 22.13 3.36
-8 3 6 16.07 2.87
-8 -3 5 29.98 3.74
-8 3 5 27.53 3.59
-8 -3 4 152.17 8.69
-8 3 4 150.79 8.72
-8 3 3 2.11 1.27
-8 -3 3 0.14 1.1
-8 3 2 0.45 0.98
-8 -3 2 0.37 0.94
-8 3 1 21.21 3.12
-8 -3 1 17.59 2.64
-8 3 0 37.1 4.06
-8 -3 0 34.23 3.57
-8 3 -1 15.33 2.73
-8 -3 -1 16.48 2.47
-8 3 -2 91.85 5.94
-8 3 -2 98.47 6.94
-8 -3 -2 84.48 5.86
-8 -3 -3 1.48 1.61
-8 3 -3 0.92 0.87
-8 -3 -3 1.08 1.16
-8 3 -4 83.42 5.66
-8 -3 -4 79.88 7.41
-8 3 -4 89.66 7.4
-8 -3 -5 3.61 2.13
-8 3 -5 1.55 1.31
-8 -3 -6 47.07 5.76
-8 3 -6 60.54 6.37
-8 -3 -7 17.93 3.71
-8 3 -7 12.92 3.34
-8 -4 7 5.38 1.85
-8 -4 6 2.38 1.5
-8 -4 5 2.68 1.4
-8 4 5 0.29 1.14
-8 4 4 5.15 1.87
-8 -4 4 6.8 1.76
-8 4 3 3.33 1.68
-8 -4 3 -0.44 0.87
-8 -4 3 2.21 1.22
-8 4 2 23.04 3.33
-8 -4 2 14.46 2.17
-8 -4 2 17.28 2.64
-8 -4 1 64.4 4.71
-8 4 1 60.27 5.46
-8 -4 1 64.74 5.01
-8 4 0 3.17 1.65
-8 -4 0 0.47 0.79
-8 -4 0 5.25 1.58
-8 -4 -1 5.73 2.15
-8 4 -1 6.53 1.87
-8 -4 -2 8.35 2.44
-8 4 -2 10.03 2.11
-8 -4 -3 18.87 3.53
-8 4 -3 19.85 2.94
-8 -4 -4 3.98 1.86
-8 4 -4 -1.18 2.15
-8 4 -4 2.31 1.2
-8 4 -5 18.79 3.79
-8 4 -5 20.74 2.99
-8 -5 7 127.96 8.61
-8 -5 6 1.37 1.06
-8 -5 3 86.09 5.89
-8 5 2 3.41 1.33
-8 -5 2 3.74 1.45
-8 -5 1 144.69 8.04
-8 5 1 154.38 8.79
-8 5 1 143.57 8.9
-8 -5 1 131.19 9.39
-8 -5 0 2.57 1.38
-8 5 0 0.69 1.25
-8 5 0 1.83 1.43
-8 -5 -1 4.55 1.56
-8 5 -1 6.52 1.9
-8 -5 -2 20.34 2.93
-8 5 -2 24.48 3.41
-8 5 -3 162.36 9.27
-8 5 -4 -0.01 1.01
-8 5 -5 12.45 2.48
-8 -6 3 20.42 3.1
-8 -6 2 72.19 5.83
-8 -6 1 90.99 6.66
-9 0 4 -1.79 1.35
-9 0 3 3.52 1.49
-9 0 2 0.63 1.14
-9 0 1 379.37 15.9
-9 0 0 0.54 1.14
-9 0 -1 1.05 1.08
-9 0 -2 0.77 1.44
-9 0 -3 202.07 10.77
-9 0 -4 0.33 1.39
-9 0 -5 78.23 7.27
-9 0 -6 0.87 1.31
-9 0 -7 76.14 7.15
-9 -1 5 18.7 3.17
-9 1 4 63.95 5.71
-9 -1 4 64.54 5.77
-9 1 3 6.36 2
-9 -1 3 8.84 2.21
-9 1 2 0.35 0.97
-9 -1 2 0.05 1.06
-9 1 1 11.47 2.41
-9 -1 1 13.99 2.72
-9 1 0 42.32 4.51
-9 -1 0 36.49 4.14
-9 1 -1 61.74 5.59
-9 -1 -1 61.62 5.43
-9 1 -2 8.68 2.3
-9 -1 -2 4.82 1.67
-9 -1 -3 6.02 1.64
-9 1 -4 24.75 3.99
-9 -1 -4 20.65 4.13
-9 1 -5 91.73 7.89
-9 -1 -5 104.49 8.71
-9 1 -6 1.41 1.4
-9 -1 -6 0.62 1.46
-9 1 -6 3.09 1.66
-9 1 -7 9.69 2.61
-9 -2 5 19.02 3.24
-9 -2 4 33.15 4.12
-9 -2 3 45.69 4.75
-9 2 2 2.63 1.78
-9 -2 2 -0.37 1.16
-9 2 1 69.4 5.96
-9 -2 1 68.47 5.73
-9 2 0 13.83 2.72
-9 -2 0 14.84 2.67
-9 2 -1 11.04 2.61
-9 -2 -1 19.24 3.03
-9 -2 -2 5.27 1.85
-9 2 -2 1.5 1.21
-9 -2 -3 1.23 1.25
-9 -2 -3 -0.55 0.97
-9 2 -4 3.49 2.26
-9 2 -5 32.83 4.86
-9 2 -6 10.53 3.06
-9 -3 5 20.56 3.41
-9 -3 4 40.7 4.59
-9 -3 3 -1.56 1.33
-9 -3 2 -0.22 1.22
-9 -3 1 5.05 1.68
-9 -3 0 102.21 6.99
-9 -3 -1 18.05 2.93
-9 3 -2 13.94 2.46
-9 -4 5 85.06 6.86
-9 -4 4 87.66 6.85
-9 4 0 99.42 6.97
-9 4 -1 1.83 1.26
-9 4 -2 22.09 3.18
-9 4 -3 87.24 6.41
