#------------------------------------------------------------------------------
#$Date: 2022-05-18 12:15:59 +0300 (Wed, 18 May 2022) $
#$Revision: 275514 $
#$URL: file:///home/coder/svn-repositories/cod/cif/8/10/52/8105291.cif $
#------------------------------------------------------------------------------
#
# This file is available in the Crystallography Open Database (COD),
# http://www.crystallography.net/
#
# All data on this site have been placed in the public domain by the
# contributors.
#
data_8105291
loop_
_publ_author_name
'Klein, Wilhelm'
_publ_section_title
;
 Redetermination of the crystal structure of yttrium(III) trinitrate(V)
 pentahydrate, Y(NO3)3 &#x22C5; 5 H2O, H10N3O14Y
;
_journal_issue                   4
_journal_name_full
'Zeitschrift f\"ur Kristallographie - New Crystal Structures'
_journal_page_first              801
_journal_page_last               802
_journal_paper_doi               10.1515/ncrs-2020-0018
_journal_volume                  235
_journal_year                    2020
_chemical_formula_moiety         'H8 N3 O13 Y, H2 O'
_chemical_formula_sum            'H10 N3 O14 Y'
_chemical_formula_weight         365.02
_space_group_crystal_system      triclinic
_space_group_IT_number           2
_space_group_name_Hall           '-P 1'
_space_group_name_H-M_alt        'P -1'
_atom_sites_solution_hydrogens   difmap
_atom_sites_solution_primary     direct
_atom_sites_solution_secondary   difmap
_cell_angle_alpha                63.809(13)
_cell_angle_beta                 84.677(15)
_cell_angle_gamma                76.397(14)
_cell_formula_units_Z            2
_cell_length_a                   6.5965(12)
_cell_length_b                   9.5374(17)
_cell_length_c                   10.5249(19)
_cell_measurement_reflns_used    18697
_cell_measurement_temperature    223(2)
_cell_measurement_theta_max      47.74
_cell_measurement_theta_min      1.97
_cell_volume                     577.46(19)
_computing_cell_refinement       'STOE X-AREA 1.76'
_computing_data_collection       'STOE X-AREA 1.76'
_computing_data_reduction        'STOE X-AREA 1.76'
_computing_molecular_graphics    'DIAMOND 3.2k'
_computing_structure_refinement  SHELXL-2014/7
_computing_structure_solution    SHELXS-97
_diffrn_ambient_temperature      223(2)
_diffrn_detector                 STOE
_diffrn_detector_area_resol_mean 5.81
_diffrn_detector_type            'Pilatus 300K'
_diffrn_measured_fraction_theta_full 0.988
_diffrn_measured_fraction_theta_max 0.986
_diffrn_measurement_device_type  'STOE StadiVari'
_diffrn_measurement_method       '\w scans'
_diffrn_radiation_collimation    '0.6 mm diameter'
_diffrn_radiation_monochromator  'Graded multilayer mirror'
_diffrn_radiation_type           MoK\a
_diffrn_radiation_wavelength     0.71073
_diffrn_reflns_av_R_equivalents  0.0387
_diffrn_reflns_av_unetI/netI     0.0507
_diffrn_reflns_Laue_measured_fraction_full 0.988
_diffrn_reflns_Laue_measured_fraction_max 0.986
_diffrn_reflns_limit_h_max       8
_diffrn_reflns_limit_h_min       -8
_diffrn_reflns_limit_k_max       11
_diffrn_reflns_limit_k_min       -11
_diffrn_reflns_limit_l_max       12
_diffrn_reflns_limit_l_min       -12
_diffrn_reflns_number            7245
_diffrn_reflns_point_group_measured_fraction_full 0.988
_diffrn_reflns_point_group_measured_fraction_max 0.986
_diffrn_reflns_theta_full        25.242
_diffrn_reflns_theta_max         25.997
_diffrn_reflns_theta_min         3.178
_diffrn_source                   'Genix 3D HF Mo'
_diffrn_source_current           1.000
_diffrn_source_power             0.050
_diffrn_source_voltage           50
_exptl_absorpt_coefficient_mu    5.133
_exptl_absorpt_correction_T_max  1.000
_exptl_absorpt_correction_T_min  0.324
_exptl_absorpt_correction_type   empirical
_exptl_absorpt_process_details   'STOE X-AREA 1.76'
_exptl_crystal_colour            colourless
_exptl_crystal_density_diffrn    2.099
_exptl_crystal_description       block
_exptl_crystal_F_000             364
_exptl_crystal_size_max          0.35
_exptl_crystal_size_mid          0.28
_exptl_crystal_size_min          0.1
_refine_diff_density_max         0.475
_refine_diff_density_min         -0.629
_refine_diff_density_rms         0.115
_refine_ls_extinction_coef       .
_refine_ls_extinction_method     none
_refine_ls_goodness_of_fit_ref   1.009
_refine_ls_hydrogen_treatment    refall
_refine_ls_matrix_type           full
_refine_ls_number_parameters     203
_refine_ls_number_reflns         2228
_refine_ls_number_restraints     0
_refine_ls_restrained_S_all      1.009
_refine_ls_R_factor_all          0.0488
_refine_ls_R_factor_gt           0.0330
_refine_ls_shift/su_max          0.000
_refine_ls_shift/su_mean         0.000
_refine_ls_structure_factor_coef Fsqd
_refine_ls_weighting_details
'w=1/[\s^2^(Fo^2^)+(0.0393P)^2^] where P=(Fo^2^+2Fc^2^)/3'
_refine_ls_weighting_scheme      calc
_refine_ls_wR_factor_gt          0.0639
_refine_ls_wR_factor_ref         0.0697
_reflns_number_gt                1863
_reflns_number_total             2228
_reflns_threshold_expression     'I > 2\s(I)'
_cod_data_source_file            suppl_ncrs-2020-0018_suppl.cif
_cod_data_source_block           yohn-3_final
_cod_database_code               8105291
_shelx_space_group_comment
;
The symmetry employed for this shelxl refinement is uniquely defined
by the following loop, which should always be used as a source of
symmetry information in preference to the above space-group names.
They are only intended as comments.
;
_shelx_res_file
;

    yohn-3_final.res created by SHELXL-2014/7

TITL [Y(NO3)3(H2O)4]*H2O in P-1 (Nr.2)
CELL 0.71073   6.5965   9.5374  10.5249  63.809  84.677  76.397
ZERR 2         0.0012   0.0017   0.0019   0.013   0.015   0.014
LATT  1
SFAC Y N O H
UNIT 2 6 28 20
TEMP -50
OMIT -2 52
OMIT 0 8 9
OMIT -2 6 4
OMIT -2 8 7
L.S. 10
BOND $H
CONN 13 1.8 Y
CONN 9 1.6 O1 O2 O5 O7 O8 O10 O11 O12
CONN 6 1.6 O3 O6 O9 O14
CONN 7 2 O4
CONN 10 2 O13
EQIV $1 -x, -y+1, -z+1
EQIV $2 x-1, y, z
EQIV $3 1-x, -y, 1-z
EQIV $4 x, y-1, z
EQIV $5 -x, -y+1, -z
EQIV $6 -x+1, -y+1, -z
EQIV $7 -x+1, -y+1, -z+1
EQIV $8 x-1, y+1, z
HTAB O10 O1_$1
HTAB O10 O13_$2
HTAB O10 O2_$2
HTAB O11 O14_$1
HTAB O11 O2_$3
HTAB O12 O14_$4
HTAB O12 O7_$5
HTAB O13 O5_$6
HTAB O13 O3_$7
HTAB O14 O3_$7
HTAB O14 O9
HTAB O14 O6_$8
FMAP -2
PLAN 10
ACTA
REM  ### EXTI refined to 0.004(2) ###
WGHT    0.039300
FVAR       0.81540
Y     1    0.244262    0.349055    0.294721    11.00000    0.01217    0.01170 =
         0.01092   -0.00389    0.00058   -0.00284
N1    2    0.468944    0.281817    0.554831    11.00000    0.01953    0.01610 =
         0.01619   -0.00665    0.00058   -0.00651
O1    3    0.295244    0.381652    0.508661    11.00000    0.01998    0.02589 =
         0.01912   -0.01220   -0.00458    0.00368
O2    3    0.551930    0.213516    0.478211    11.00000    0.01996    0.01953 =
         0.02162   -0.00997    0.00255   -0.00283
O3    3    0.548294    0.256085    0.665531    11.00000    0.03040    0.03706 =
         0.02548   -0.01759   -0.01269   -0.00139
N2    2    0.520120    0.213293    0.125136    11.00000    0.02130    0.02516 =
         0.01800   -0.01188    0.00696   -0.00530
O4    3    0.502838    0.140045    0.257879    11.00000    0.02926    0.02496 =
         0.01618   -0.00776    0.00532    0.00409
O5    3    0.406481    0.355854    0.066704    11.00000    0.02752    0.01714 =
         0.01743   -0.00558    0.00454   -0.00414
O6    3    0.638295    0.155466    0.056552    11.00000    0.04213    0.03573 =
         0.03407   -0.01952    0.01433    0.00048
N3    2    0.024343    0.685963    0.145946    11.00000    0.02296    0.01668 =
         0.02186   -0.00884   -0.00025   -0.00299
O7    3    0.061561    0.581617    0.095452    11.00000    0.03206    0.01418 =
         0.01806   -0.00696   -0.00568   -0.00216
O8    3    0.105276    0.637996    0.265994    11.00000    0.02209    0.02319 =
         0.02073   -0.01157   -0.00482   -0.00423
O9    3   -0.080923    0.819738    0.081275    11.00000    0.04559    0.01629 =
         0.03809   -0.00843   -0.01328    0.00926
O10   3   -0.090563    0.385536    0.393787    11.00000    0.01315    0.02711 =
         0.03129   -0.02070    0.00531   -0.00529
H1    4   -0.152755    0.456675    0.421240    11.00000    0.02814
H2    4   -0.176876    0.372321    0.363415    11.00000    0.04574
O11   3    0.196641    0.100048    0.467957    11.00000    0.02581    0.01427 =
         0.01686   -0.00180    0.00213   -0.00297
H3    4    0.140440    0.079611    0.546676    11.00000    0.01623
H4    4    0.260572    0.017103    0.483477    11.00000    0.01750
O12   3    0.025796    0.263400    0.194367    11.00000    0.03363    0.01511 =
         0.01369   -0.00202   -0.00382   -0.01031
H5    4    0.033691    0.164462    0.227841    11.00000    0.02287
H6    4    0.006464    0.306275    0.116288    11.00000    0.03567
O13   3    0.514174    0.502444    0.221884    11.00000    0.02161    0.01931 =
         0.01556   -0.00637    0.00387   -0.00816
H7    4    0.543678    0.535908    0.138822    11.00000    0.03097
H8    4    0.493441    0.571376    0.249982    11.00000    0.03034
O14   3    0.003120    0.953739    0.279924    11.00000    0.04526    0.01862 =
         0.02110   -0.00744   -0.00004   -0.00513
H9    4    0.112054    0.882265    0.296290    11.00000    0.07281
H10   4   -0.061515    0.956570    0.222553    11.00000    0.05470
HKLF 4

REM  [Y(NO3)3(H2O)4]*H2O in P-1 (Nr.2)
REM R1 =  0.0330 for    1863 Fo > 4sig(Fo)  and  0.0488 for all    2228 data
REM    203 parameters refined using      0 restraints

END

WGHT      0.0393      0.0000

REM Highest difference peak  0.475,  deepest hole -0.629,  1-sigma level  0.115
Q1    1   0.1515  0.2923  0.3397  11.00000  0.05   -0.63
Q2    1   0.3298  0.4226  0.2464  11.00000  0.05   -0.61
Q3    1   0.3204  0.2777  0.2724  11.00000  0.05   -0.59
Q4    1   0.1540  0.4320  0.3231  11.00000  0.05   -0.53
Q5    1   0.2379  0.2552  0.3237  11.00000  0.05    0.48
Q6    1   0.3007  0.3179  0.3606  11.00000  0.05   -0.46
Q7    1   0.2337  0.4583  0.2601  11.00000  0.05    0.44
Q8    1   0.1103  0.7811  0.3459  11.00000  0.05   -0.43
Q9    1  -0.0496  0.7618  0.1974  11.00000  0.05   -0.43
Q10   1   0.2082  0.3948  0.2341  11.00000  0.05   -0.43
;
_shelx_hkl_file
;
   0   1   3   45.42   17.05   0
   1  -2   2 2104.99   27.17   0
   1   9   9  885.27   27.27   0
   3   0   9  515.34   27.83   0
   4  -3   6    4.87   29.42   0
   4  13  14   52.84   36.55   0
   6   1  12   48.39   45.85   0
   6  14  16  117.43   39.75   0
   8  -1  10    4.53   47.45   0
   8   3  14   28.94   47.51   0
   8   6  16  -52.52   45.05   0
   9   0  11   93.89   52.23   0
   9   6  16  -34.94   46.38   0
   0   3   5 1441.94   22.81   0
   1  -1   4 2166.89   25.10   0
   3   4  12  120.25   31.14   0
   4  -4   4    1.75   30.05   0
   4   4  13    4.71   33.00   0
   4   6  14   43.50   37.62   0
   5   3  13  104.90   43.40   0
   6  -3   7  144.13   43.90   0
   7  -1  10   -3.87   47.99   0
   7   2  13   31.06   46.89   0
   7  10  17  -12.39   44.99   0
   9   1  12    9.22   51.38   0
   0   2   4 3068.13   27.44   0
   2   3  10  700.81   28.36   0
   2   5  11  457.10   26.95   0
   5   7  15   87.20   41.43   0
   6  -5   3   90.13   39.68   0
   6   8  16   57.38   43.21   0
   7   5  15   70.94   51.01   0
   7   7  16  114.75   48.26   0
   7  12  17  -28.54   39.09   0
   8  -3   7  131.19   46.88   0
   8   0  11   14.44   47.59   0
   8   9  17  -54.70   39.08   0
   9   9  17  -74.76   41.25   0
  10   5  15  -41.23   44.37   0
  11   1  11  -33.73   45.74   0
   1   3   8  119.37   22.34   0
   1   5   9   29.83   21.80   0
   3   7  13   99.12   33.73   0
   5   2  12  190.05   39.82   0
   5   5  14   64.47   43.89   0
   5  13  15  -10.28   40.19   0
   6   4  14  268.38   42.10   0
   7  -3   7  -30.16   43.44   0
   7  15  16   26.87   38.07   0
   8   5  15  168.71   51.85   0
   8  14  17   42.24   35.08   0
   9   5  15   23.82   47.46   0
  10  -1   9   -8.67   49.52   0
   0   6   5  173.52   23.02   0
   1   8   9  204.27   23.24   0
   2  -1   6 1225.48   25.13   0
   2  10  11   39.77   29.69   0
   3   3  11  701.99   29.94   0
   3  10  13  183.35   34.00   0
   4   3  12  442.21   34.39   0
   4   7  14  236.86   39.30   0
   4  12  14   83.75   36.36   0
   6  -4   5  257.93   41.38   0
   6   6  15    7.69   42.94   0
   6   9  16  -14.27   43.29   0
   8   7  16  -73.34   48.62   0
   8  10  17   53.75   41.54   0
   9  -2   8  -25.96   48.97   0
   9   7  16   -0.57   49.66   0
   0   4   5 1791.40   24.71   0
   1   0   5    6.11   20.69   0
   1   2   7  885.48   23.00   0
   2   0   7  790.79   26.92   0
   2   1   8  201.52   27.57   0
   2   6  11  -26.67   26.35   0
   2  11  10  -22.32   32.50   0
   3  12  12  273.79   37.07   0
   4   2  11  380.56   34.89   0
   4   5  13  369.94   33.39   0
   4   8  14   46.95   41.58   0
   4  11  14   65.14   41.90   0
   5  -5   2   65.42   37.60   0
   5   0  10  -24.07   35.94   0
   5   1  11   43.70   37.39   0
   5   9  15  -80.89   45.65   0
   5  11  15   99.35   46.80   0
   5  12  15   51.82   40.84   0
   5  14  14  -34.87   43.69   0
   6  -2   8  162.45   43.18   0
   6   3  13  134.32   46.63   0
   6  12  16   32.50   38.30   0
   7  -4   5  -46.88   43.56   0
   7   4  14   -8.91   51.96   0
   7   6  15    5.95   52.77   0
   7   8  16   63.03   48.52   0
   7  14  16   29.05   44.30   0
   8  -2   8   13.35   54.81   0
   8   4  14  -47.54   56.81   0
   8  13  17   15.25   36.23   0
   9   4  14  -71.43   57.85   0
   9  10  17   21.93   46.16   0
   9  11  17   10.91   43.44   0
  10   0  10   14.67   53.70   0
  10   1  11  128.28   56.87   0
  10   2  12  -20.61   59.31   0
   1   1   6 1172.07   22.22   0
   1   9   8   52.42   25.88   0
   2   4  10   62.95   29.49   0
   3   2  10  554.83   30.91   0
   4  13  13    2.43   40.31   0
   5  -3   6  243.33   34.74   0
   5   6  14  104.95   47.40   0
   6   2  12 -132.00   51.44   0
   6   5  14    9.03   52.83   0
   7  -2   8  107.77   49.70   0
   8   8  16   36.36   51.59   0
   9  -1   9    1.72   51.42   0
   9   8  16   13.79   56.85   0
  10   6  15  152.62   53.41   0
   1   4   8 1521.04   25.68   0
   3  -1   7  327.41   27.93   0
   3   1   9   25.55   29.95   0
   4   0   9   66.90   33.49   0
   4   1  10    6.88   32.71   0
   6   1  11  137.66   49.54   0
   6  14  15   -1.43   40.92   0
   7   3  13  153.85   51.91   0
   7  13  16   27.59   47.26   0
   8   3  13  -32.08   56.21   0
   8   6  15  265.75   56.43   0
   8  15  16   31.66   38.54   0
   9   6  15  213.01   52.04   0
   2  -2   4  907.48   26.39   0
   3   0   8  213.76   28.51   0
   3   6  12   80.43   32.03   0
   4   4  12  194.81   35.64   0
   4   6  13  288.14   35.84   0
   5  -4   4  316.49   34.41   0
   7  -1   9   74.02   51.48   0
   7   2  12  139.81   54.46   0
   7  10  16  114.73   46.05   0
   8  -1   9  111.48   51.11   0
   9   0  10    7.31   50.79   0
  11   0   9   22.04   49.73   0
   3  11  12   69.59   36.18   0
   4  -3   5  253.99   29.41   0
   5   7  14   12.24   47.84   0
   6   8  15   68.01   47.19   0
   7   5  14  171.48   53.51   0
   8   9  16   30.02   47.96   0
   9   9  16   62.88   51.29   0
  10   5  14   71.07   54.41   0
  10   9  16 -133.29   45.91   0
   0   1   2 1251.54   25.15   0
   0   3   4   18.45   17.74   0
   1   5   8  460.30   24.03   0
   2   3   9   32.37   27.57   0
   3   7  12   40.69   36.35   0
   5  13  14   51.58   44.23   0
   6  -3   6  -32.01   43.64   0
   6   4  13  -10.38   50.00   0
   6  13  15   70.41   44.04   0
   7  15  15  -14.33   41.45   0
   8   0  10  120.23   52.83   0
   8  10  16  -39.12   50.68   0
   8  14  16   68.60   41.23   0
  10   7  15  -20.01   52.31   0
  11   1  10  206.65   53.28   0
  11   2  11  -34.16   53.69   0
  11   3  12   55.23   50.04   0
   1  -2   1  317.48   24.12   0
   1  -1   3  311.82   21.45   0
   1   3   7   29.92   21.80   0
   1   8   8  362.96   26.42   0
   2  10  10  194.32   29.60   0
   3  10  12   71.88   35.19   0
   4   7  13   17.40   38.17   0
   4  12  13  185.12   38.39   0
   5   2  11   52.55   37.04   0
   5   5  13  -14.65   39.69   0
   6  -5   2   16.75   40.40   0
   6   6  14   33.61   48.36   0
   6   9  15   52.72   47.09   0
   7  -3   6  146.58   46.04   0
   8   5  14   95.10   57.64   0
   8   7  15  -37.50   54.83   0
   8  13  16   50.09   44.87   0
   9   5  14  -12.92   52.48   0
   9   7  15   -0.74   57.14   0
  10  -1   8  146.23   51.53   0
   0   2   3  439.12   20.04   0
   3   3  10   50.54   29.35   0
   4   3  11   96.52   34.03   0
   5   8  14    0.22   44.88   0
   6  12  15   47.75   42.81   0
   9  -2   7   -2.36   51.86   0
   9  10  16 -141.22   50.39   0
   0   6   4  123.74   29.46   0
   1  10   6  530.55   34.85   0
   2  -1   5 1160.21   24.69   0
   2   2   8  504.41   27.27   0
   3  12  11  101.88   36.40   0
   4   5  12   30.43   34.57   0
   4   8  13   97.02   40.94   0
   4  11  13   24.22   42.36   0
   5   0   9  284.11   40.97   0
   5   1  10   82.41   37.62   0
   6  -4   4    6.76   40.08   0
   6   3  12  256.90   47.90   0
   7   4  13   10.72   51.71   0
   9  11  16    5.62   50.53   0
   2   1   7 1312.86   27.10   0
   2   9  10  162.62   29.54   0
   2  11   9  140.40   33.03   0
   4   2  10  290.99   35.09   0
   5   9  14   85.80   45.48   0
   5  14  13  113.34   41.02   0
   6  -2   7   27.94   41.93   0
   7  -4   4  247.68   47.34   0
   7  14  15   23.28   42.76   0
   8   4  13  -12.22   57.31   0
   8   8  15  104.22   57.69   0
   9   4  13  111.46   52.77   0
   9  13  16   44.62   41.27   0
  10   0   9  -62.56   53.65   0
  10   1  10  -83.52   58.48   0
  10   2  11  -32.74   59.65   0
  10   6  14   42.96   55.00   0
  10   8  15  210.67   55.56   0
   1   0   4 3195.24   27.28   0
   1   2   6   52.99   19.28   0
   2   0   6    6.75   24.14   0
   3   2   9  735.93   30.00   0
   4  13  12  129.68   39.30   0
   5   4  12   61.43   36.82   0
   6   2  11   79.48   48.24   0
   6   5  13   53.99   49.25   0
   6   7  14   59.54   47.44   0
   6  14  14  129.57   43.42   0
   7  -2   7  193.36   51.13   0
   7   9  15    3.61   51.27   0
   8  -2   7    3.19   49.11   0
   8  15  15  -47.69   42.83   0
   9  -1   8   34.43   56.05   0
   9   8  15 -121.05   53.23   0
   1   1   5 3611.22   27.58   0
   1   9   7  565.93   28.71   0
   4  -1   7  171.34   30.08   0
   4   1   9  159.88   30.67   0
   5  -3   5  143.04   33.39   0
   7   3  12    5.75   50.51   0
   7  10  15   59.53   48.42   0
   7  13  15   21.44   43.65   0
   8   3  12  -80.47   56.81   0
   8   6  14   51.41   56.37   0
   9   6  14   43.90   56.54   0
   3  -1   6   63.89   27.08   0
   3   1   8  405.33   28.75   0
   3   6  11  455.92   30.81   0
   4  -5   0    8.93   34.05   0
   4   0   8  111.42   29.67   0
   4   6  12  143.98   33.60   0
   5  -5   1   21.78   36.72   0
   6   1  10   48.34   43.14   0
   6   8  14   26.68   48.74   0
   7  12  15  -61.03   46.20   0
   8   9  15  134.81   54.28   0
   9   0   9   -9.76   51.97   0
  10   9  15  126.47   54.76   0
  11   0   8  -90.94   55.16   0
   3   0   7   17.57   26.47   0
   3   4  10  146.30   29.80   0
   3  11  11   43.20   35.00   0
   4   4  11  429.02   33.52   0
   5   7  13  428.00   45.33   0
   6  13  14   62.66   43.07   0
   7  -1   8   70.77   48.73   0
   7   2  11  -34.42   51.74   0
   7   5  13    7.92   50.91   0
   7   7  14   17.55   51.89   0
   7  15  14   38.48   41.87   0
   8  -1   8   94.61   51.60   0
   8  14  15  -56.55   43.68   0
   9   1  10   79.81   54.09   0
   9   9  15   80.96   51.08   0
  10   5  13  -46.32   55.79   0
  11   3  11  -54.97   58.99   0
   3  -4   1  445.78   28.33   0
   4  -3   4  249.04   28.48   0
   5  -4   3    4.48   33.42   0
   5  13  13   21.67   43.21   0
   6   4  12  177.01   45.66   0
   6  15  13   75.90   41.34   0
   8   0   9  108.78   52.31   0
   8  10  15  135.71   48.42   0
   9   5  13   -9.58   61.90   0
  10   7  14  147.34   54.59   0
  11   1   9   -5.10   56.94   0
  11   2  10  -78.90   57.48   0
   2  -2   3  233.01   24.48   0
   2   3   8  176.30   25.57   0
   2   5   9  412.24   27.07   0
   3   7  11  817.90   31.60   0
   3  10  11  229.43   32.34   0
   4   7  12  514.43   39.13   0
   6  -3   5  340.10   40.02   0
   6   6  13   16.66   49.17   0
   6   9  14  129.82   46.11   0
   6  12  14  -41.33   46.52   0
   8  -3   5   58.29   48.33   0
   8   5  13   51.87   56.92   0
   8   7  14  122.06   54.89   0
   8  13  15   99.05   47.89   0
   9   7  14  -40.23   55.85   0
   9  10  15  115.08   47.26   0
   9  14  15  -15.63   42.16   0
  10  10  15  -16.37   49.14   0
  11   6  13  -13.97   56.92   0
  11   8  14  -20.70   49.65   0
   1   5   7  267.42   22.70   0
   2  10   9  109.05   28.09   0
   4   3  10  423.31   34.26   0
   5   8  13  108.04   42.52   0
   7  -3   5   70.10   44.79   0
  10  11  15  184.51   53.26   0
  12   1   8  -16.08   47.87   0
   1   3   6  184.30   21.70   0
   1   8   7  193.39   25.26   0
   3   3   9  906.32   29.84   0
   3  12  10   60.15   36.54   0
   4  -4   2   16.72   29.97   0
   4  11  12  177.97   41.68   0
   5  12  13   41.31   41.82   0
   7   4  12  217.16   52.80   0
   7  14  14  -62.79   43.56   0
   9  -2   6   -6.74   52.54   0
   9   4  12   32.89   59.16   0
   9  11  15   13.84   49.99   0
   9  13  15 -113.74   47.78   0
  12   2   9  119.41   48.01   0
  12   3  10   44.47   50.12   0
   2   2   7  400.78   25.04   0
   2   6   9  426.63   28.03   0
   3   5  10  595.17   30.93   0
   4   5  11  223.14   32.18   0
   5   0   8  638.57   37.32   0
   5   1   9  103.50   33.55   0
   5   9  13   49.03   42.91   0
   5  11  13  109.98   41.50   0
   5  14  12   34.44   41.02   0
   6  -5   1  264.42   42.04   0
   6   3  11  -12.31   41.85   0
   7   6  13   65.48   52.14   0
   8   4  12   76.94   53.76   0
   8   8  14   -1.98   57.13   0
   8  15  14   54.10   43.14   0
  10   6  13   43.01   52.53   0
  10   8  14   68.00   56.07   0
   0   3   3  630.53   24.45   0
   1   7   7   62.53   23.17   0
   2   9   9  153.75   27.77   0
   4  10  12  388.37   38.31   0
   4  13  11    4.68   38.29   0
   6  -4   3  293.11   38.59   0
   6  -2   6  217.06   39.22   0
   6   7  13  -21.93   47.10   0
   6  14  13    9.83   42.04   0
   7  13  14   57.79   44.74   0
   9   8  14 -119.91   55.60   0
  10   1   9   29.12   53.08   0
  10   2  10   66.17   56.24   0
  11   9  14  -34.84   50.55   0
   1  -1   2 3237.96   31.68   0
   2  -1   4  197.94   21.98   0
   2  11   8  256.01   32.14   0
   6   2  10  145.35   41.30   0
   7  -4   3   33.36   46.34   0
   7   3  11  248.26   51.79   0
   7  10  14   20.32   49.64   0
   8  -2   6  145.97   47.70   0
   8   6  13 -105.88   55.76   0
   9  -1   7   83.12   52.36   0
   9   6  13  -46.48   58.78   0
  11   7  13  290.31   53.90   0
   2   0   5  358.12   24.30   0
   2   1   6 2061.42   27.53   0
   2   4   8    4.52   25.34   0
   3   2   8   22.32   27.87   0
   7  -2   6  113.13   48.10   0
   7  12  14  157.35   47.05   0
   7  15  13   15.17   43.28   0
   8   3  11   36.57   54.11   0
   8   9  14   71.97   55.49   0
   8  14  14   33.13   47.40   0
   9  15  14   58.95   40.05   0
  10  -2   5  -18.59   52.90   0
  10   9  14   43.43   54.52   0
  11   0   7    2.31   54.82   0
  11  10  14  -12.58   49.27   0
   1   2   5 4340.92   28.83   0
   3   6  10   10.37   28.91   0
   3  11  10  124.74   33.01   0
   4  -1   6  378.25   29.93   0
   4   1   8  135.31   30.32   0
   4   6  11   85.73   31.48   0
   5  -3   4  124.35   33.14   0
   5  13  12  -61.49   43.64   0
   6   1   9  561.46   41.00   0
   6   8  13  169.25   46.66   0
   6  13  13  -21.53   43.18   0
   6  15  12   42.05   41.71   0
   7   2  10   54.65   51.07   0
   7   7  13   36.86   50.89   0
   8  -1   7   79.00   53.03   0
   9   9  14  114.47   55.56   0
  10   5  12  -17.40   53.91   0
  11   3  10   63.35   61.41   0
   1   9   6  160.89   28.46   0
   3  -1   5 1541.78   27.69   0
   3   1   7  215.71   26.42   0
   4   0   7  836.06   30.10   0
   4   4  10   80.75   30.50   0
   5   7  12   35.51   36.60   0
   7   5  12  262.43   51.86   0
   8  10  14   -5.90   51.95   0
   8  13  14  134.29   45.49   0
   9   5  12  302.13   62.49   0
   9  14  14  -36.85   46.73   0
  10   7  13   27.21   55.53   0
  10  10  14  -10.57   52.17   0
  11   1   8  -87.72   57.19   0
  11   2   9   10.02   60.43   0
   3   0   6  582.34   28.05   0
   3   4   9   25.91   28.27   0
   4  12  11  171.44   38.62   0
   6   4  11  117.68   38.45   0
   6   6  12  249.77   40.88   0
   6   9  13  152.21   45.99   0
   8   0   8   25.95   50.21   0
   8   5  12  -19.66   53.81   0
   8   7  13   -3.51   54.56   0
   9   7  13  118.34   58.82   0
   9  10  14   24.68   50.96   0
  11   6  12  109.53   57.29   0
  11   8  13   33.91   52.93   0
  12   4  10    1.18   51.83   0
   1   0   3 1936.85   25.47   0
   1   1   4 3832.67   29.36   0
   3   7  10  217.67   27.61   0
   4   7  11   43.88   34.80   0
   5   5  11   26.83   36.05   0
   5   8  12  200.19   41.32   0
   7   8  13   61.76   49.20   0
   7  14  13   20.28   44.97   0
   8  -3   4  116.86   50.15   0
   9  11  14 -103.75   52.00   0
   9  13  14  -19.75   48.20   0
   9  16  13  -24.42   38.88   0
  10  -1   6   -2.64   53.56   0
  10  11  14  100.93   53.09   0
  12   2   8   64.92   54.66   0
  12   3   9   52.48   54.51   0
   2   3   7  290.57   24.25   0
   2   5   8  511.29   25.51   0
   5   2   9  346.24   34.26   0
   5  12  12  138.51   43.38   0
   5  14  11   59.23   42.32   0
   6  -3   4  245.24   38.21   0
   7   4  11  233.92   53.15   0
   8  15  13  106.11   44.24   0
  10   8  13  -46.44   60.03   0
   2  10   8   25.14   27.35   0
   3  12   9  149.76   35.15   0
   4   3   9  124.05   30.29   0
   4   8  11  382.27   36.56   0
   4  11  11  298.45   41.05   0
   5  -4   2  385.07   33.42   0
   5   9  12  133.23   42.72   0
   6   3  10  144.69   40.83   0
   6  14  12   13.48   44.88   0
   7  -3   4  235.98   44.45   0
   8   4  11  165.88   55.82   0
   8   8  13  130.51   54.54   0
   9  -2   5   73.95   53.56   0
   9   4  11   45.71   56.73   0
   9   8  13   55.39   61.06   0
  10   0   7  -21.76   54.63   0
  10   6  12   91.68   59.35   0
  11   9  13  146.20   53.32   0
   4   5  10   69.94   32.34   0
   5   1   8  958.25   35.21   0
   6   7  12  261.12   43.59   0
   7   9  13  -22.17   49.64   0
   7  13  13  167.55   43.01   0
   8  -4   2   -8.41   48.61   0
   9   6  12  199.06   62.87   0
  10   1   8   49.71   54.20   0
  11   7  12   23.78   55.96   0
   1   5   6  945.96   25.33   0
   3   3   8  666.52   28.79   0
   3   5   9  636.05   28.96   0
   5   0   7   34.10   32.20   0
   5   6  11  153.28   35.80   0
   6   5  11  263.37   41.43   0
   7  12  13   51.90   46.74   0
   8   6  12 -139.90   54.02   0
   8  14  13   31.13   48.16   0
   9   3  10  -32.42   57.18   0
   9  15  13    0.18   43.53   0
  10   9  13  140.70   58.18   0
  11  10  13  121.31   51.66   0
   1   8   6  140.70   25.49   0
   2  -2   2  324.30   23.60   0
   2   6   8 1048.45   27.26   0
   6  -2   5  -26.82   38.92   0
   6   2   9   -5.61   40.19   0
   7   3  10   38.12   48.13   0
   7  15  12  104.36   42.25   0
   8  -2   5   36.16   48.82   0
   8   3  10  157.90   55.92   0
   8   9  13   53.58   54.98   0
   9  -1   6  104.26   50.64   0
   9   9  13   38.43   60.77   0
   2   2   6 1492.04   25.22   0
   2   9   8 1056.61   29.81   0
   2  11   7  214.89   33.04   0
   4  -5  -1  613.32   38.85   0
   4   2   8  910.76   30.62   0
   6  -4   2  314.50   37.97   0
   6   8  12 -105.00   44.26   0
   6  13  12   67.54   42.78   0
   7  -4   2  119.61   47.31   0
   7   7  12  -85.86   54.45   0
  10  -2   4  120.37   52.26   0
  10   5  11  -18.80   56.99   0
  10   7  12  187.96   61.97   0
  11   0   6  -16.28   52.83   0
  11   3   9   14.20   57.76   0
  11  11  13   49.99   51.34   0
   1   7   6  150.37   23.90   0
   2   8   8  221.60   26.40   0
   3  -4   0  248.05   30.16   0
   4  -4   1  318.14   30.55   0
   4   6  10  211.19   32.76   0
   5  13  11  127.07   43.02   0
   6  -5   0   63.90   40.47   0
   6   1   8  148.90   43.49   0
   7  -2   5  532.66   47.31   0
   7   2   9   58.31   48.98   0
   7   5  11   44.38   48.15   0
   8   2   9  -19.23   55.96   0
   8  10  13   57.81   51.77   0
   8  13  13  176.73   46.81   0
   9  10  13  -50.18   59.17   0
   9  14  13   10.31   47.03   0
   9  16  12   10.33   43.32   0
  10  10  13  -79.57   51.35   0
  10  14  13   83.91   44.69   0
  11   1   7   27.93   56.92   0
  11   2   8   53.88   57.15   0
  11   6  11   96.80   57.09   0
  11   8  12   21.48   59.77   0
  11  12  13  -25.66   46.93   0
  12   7  11   73.87   56.28   0
   2   4   7  676.47   26.73   0
   3   2   7  436.66   26.66   0
   3  11   9   -6.67   31.74   0
   5   7  11  105.22   34.54   0
   6   9  12  171.66   46.16   0
   8  -1   6   47.86   52.71   0
   8   5  11  171.85   54.10   0
   8   7  12  114.47   54.71   0
   9   5  11  125.21   56.91   0
   9   7  12  -77.80   58.46   0
   9  11  13  -44.96   53.44   0
  10  11  13  -26.35   50.97   0
  12   4   9   35.14   57.04   0
   2   1   5  603.75   22.92   0
   4  -1   5  308.02   28.29   0
   4   4   9  476.33   31.11   0
   4  12  10  204.50   38.15   0
   6   4  10   39.40   38.52   0
   7  -1   6   66.42   42.97   0
   7  14  12  -24.41   45.46   0
   8   0   7  330.28   49.72   0
   8  15  12  -91.93   48.61   0
  10   4  10  -52.72   53.79   0
  12   2   7    2.58   57.11   0
  12   3   8   -8.22   54.48   0
   2  -1   3  556.13   23.85   0
   3   4   8  387.73   27.99   0
   5  -3   3  576.81   32.96   0
   5   5  10   83.10   33.56   0
   5  12  11   38.81   42.86   0
  10  -1   5    5.91   53.42   0
  10   8  12  191.94   57.05   0
  11   9  12   27.41   60.16   0
   2   0   4  204.61   20.15   0
   3   7   9  153.67   29.06   0
   3  10   9  344.12   31.30   0
   4   7  10  381.95   30.74   0
   5  14  10  224.16   43.15   0
   6  14  11  166.29   45.82   0
   7   4  10  176.68   46.20   0
   8  -3   3  -56.52   50.44   0
   8   8  12  106.71   55.26   0
   9   4  10  111.67   57.02   0
   9   8  12   69.37   61.24   0
  10   6  11  -61.77   62.08   0
  11   5  10   58.91   60.45   0
  12   6  10  -86.82   57.13   0
  12   8  11   70.35   53.88   0
   3  -1   4  365.06   23.37   0
   3   0   5  192.20   25.48   0
   4  11  10   18.65   38.89   0
   5   2   8   20.04   33.32   0
   5  11  11   35.07   41.07   0
   7   9  12   38.66   49.67   0
   7  13  12  123.77   44.39   0
   8   4  10 -121.34   55.56   0
   9  -2   4   53.88   52.88   0
   9  15  12   55.45   49.14   0
  10   0   6  -74.25   53.84   0
  10   1   7   48.83   55.96   0
  10  15  12   -4.05   45.89   0
  11  -1   4   73.25   50.63   0
  11   7  11   -3.78   55.52   0
   1   2   4 1055.50   22.25   0
   3   9   9  123.56   30.17   0
   3  12   8   -0.17   34.77   0
   6  -3   3  141.68   38.34   0
   6   3   9  139.81   37.68   0
   7  10  12 -132.07   51.92   0
   7  15  11  -31.25   45.43   0
   8   6  11  -96.72   55.18   0
   8  14  12  -27.10   49.36   0
   9   6  11  180.52   57.33   0
  10   9  12   47.30   58.54   0
  11  10  12  -40.47   53.04   0
   2   5   7  156.96   24.61   0
   2  10   7  186.06   29.88   0
   4   3   8  713.18   30.26   0
   4   5   9  210.74   30.64   0
   4  10  10  409.39   35.74   0
   4  13   9   44.16   38.49   0
   7  -3   3  210.45   42.59   0
   8   9  12  -49.80   52.73   0
   9   3   9   45.92   56.22   0
   9   9  12   46.73   59.38   0
  10   5  10 -155.56   63.64   0
  11  11  12  146.42   56.58   0
  12   9  11  149.81   54.89   0
   1   4   5 1136.12   24.44   0
   2   3   6   45.40   22.82   0
   5   1   7  506.13   31.99   0
   5   6  10    5.66   33.94   0
   6  13  11    8.81   43.01   0
   7   3   9   86.80   43.06   0
   8   3   9   48.23   54.88   0
   8  13  12  111.21   47.92   0
   9  -1   5   28.10   51.24   0
   9  14  12   68.38   49.22   0
   9  16  11  -11.88   44.85   0
  10   7  11   56.56   60.89   0
  10  10  12   67.42   56.20   0
  10  14  12   76.34   46.84   0
  11   0   5   25.85   52.78   0
  11  12  12   -8.01   52.53   0
   3   5   8  219.95   26.86   0
   5  -4   1   24.83   32.79   0
   5   0   6  603.28   32.68   0
   6   2   8  378.98   35.94   0
   6   8  11  217.32   41.96   0
   7   7  11  165.27   48.47   0
   8  -2   4  221.20   49.34   0
   8  10  12   88.63   52.88   0
   9   0   6  186.57   57.12   0
   9  10  12  -18.40   57.51   0
  10  -2   3   26.08   52.81   0
  10  11  12   23.62   55.10   0
  11   1   6   16.48   56.51   0
  11   2   7  161.08   54.66   0
  11   6  10  -10.88   55.33   0
  11   8  11  -76.18   57.43   0
  12   7  10  -38.01   58.36   0
   4  -3   2  716.72   30.11   0
   5  13  10   98.26   41.04   0
   7   5  10  169.14   42.06   0
   8   7  11    1.98   58.16   0
   9  -3   2    4.35   53.05   0
   9   5  10  -51.62   56.47   0
   9  11  12    0.93   54.53   0
  12   3   7   59.47   61.71   0
  12  10  11  -10.58   51.68   0
  13   2   5    1.62   49.54   0
  13   3   6   44.88   51.58   0
  13   4   7   19.07   51.35   0
   2   6   7  824.43   25.04   0
   4   2   7   30.60   28.81   0
   6  -2   4  273.29   36.55   0
   6   1   7  403.18   39.90   0
   6   9  11   30.63   43.70   0
   6  12  11   60.40   44.98   0
   7  -2   4    5.42   42.19   0
   7   2   8   12.84   44.07   0
   7  14  11   -9.75   46.94   0
   8   5  10  188.87   55.83   0
   8  15  11  -23.91   46.34   0
  10   4   9   62.13   56.43   0
  12   2   6   11.41   56.52   0
   1   1   3  536.18   21.84   0
   2   9   7   11.64   27.48   0
   5  -5  -1   73.16   39.36   0
   5   7  10  195.62   32.61   0
   7  -4   1  256.67   47.01   0
   7   8  11   40.87   51.62   0
   8  -1   5  135.72   49.84   0
  10   8  11  338.42   59.54   0
  11   5   9  -57.39   59.54   0
  11   9  11   32.87   58.48   0
  12   6   9  -78.81   58.60   0
  12   8  10  138.30   54.99   0
   3   6   8   30.51   28.73   0
   4  12   9  115.88   37.53   0
   5   3   8  164.48   33.25   0
   5  12  10   30.38   42.20   0
   6  -4   1  181.47   39.30   0
   6   6  10  470.65   39.18   0
   7  -1   5  183.28   43.95   0
   7   1   7   50.28   41.83   0
   9   4   9  104.36   58.30   0
   9   8  11   81.94   60.66   0
   9  15  11   64.95   46.92   0
  10  -1   4   76.95   55.50   0
  10   6  10  181.48   61.77   0
  10  15  11  -24.70   44.96   0
  11   7  10  115.51   62.57   0
   1  -1   1   13.90   20.07   0
   1   5   5 1618.03   27.06   0
   2   2   5   96.42   21.42   0
   2   8   7  314.44   27.55   0
   2  11   6  419.81   33.00   0
   3  -3   1  149.48   25.16   0
   3   2   6  220.94   24.81   0
   4   4   8    0.37   29.17   0
   5   5   9   21.31   33.69   0
   5   8  10  181.58   40.08   0
   5  14   9  -10.07   42.68   0
   6  14  10   15.49   44.26   0
   7  13  11   56.51   46.05   0
   8   8  11  206.95   53.96   0
   8  14  11  144.82   48.43   0
  10   9  11  -12.12   63.58   0
  11  -1   3   67.36   54.87   0
  11  10  11   10.36   55.73   0
  11  14  11  -65.32   46.67   0
   1   0   2   20.90   19.49   0
   1   8   5  335.86   28.37   0
   4   7   9  517.90   31.75   0
   7   4   9  -39.29   40.82   0
   7   6  10   23.11   41.85   0
   7   9  11   95.49   48.70   0
   8   4   9  230.35   53.59   0
   9   6  10  -32.38   57.24   0
  10   0   5   96.39   51.22   0
  10   1   6   75.41   55.80   0
  11  11  11   50.42   51.45   0
  12   9  10  174.54   58.03   0
   2   4   6 1046.62   24.64   0
   3  10   8  435.55   33.08   0
   4  -1   4  131.48   27.97   0
   4   0   5  752.16   29.56   0
   4  11   9  161.39   36.33   0
   6  -5  -1  203.24   42.38   0
   6   7  10   74.63   39.70   0
   7  10  11   58.46   49.73   0
   7  12  11   70.31   47.36   0
   8  -3   2   59.47   50.88   0
   8   6  10   52.65   55.73   0
   8   9  11 -101.70   52.03   0
   9  -2   3  162.60   53.76   0
   9   3   8  191.74   59.21   0
   9   9  11  -60.87   58.29   0
   9  14  11  -40.51   51.79   0
   9  16  10 -122.01   45.99   0
  10  10  11  147.12   63.10   0
  11  12  11   12.78   53.70   0
   3   4   7  454.97   26.34   0
   3   7   8  204.59   27.95   0
   5  -3   2   32.34   33.60   0
   5   2   7  902.44   34.34   0
   6   3   8  118.28   36.74   0
   8  13  11   84.66   48.53   0
  10   5   9  124.95   59.24   0
  10   7  10  164.28   62.83   0
  11   6   9   84.32   62.58   0
  11   8  10  -26.34   58.20   0
  12   0   3   28.39   55.18   0
  12   7   9 -121.81   54.92   0
  12  10  10 -114.67   55.56   0
  13   4   6  -79.33   54.63   0
   1   7   5  219.45   25.92   0
   3   9   8  -25.84   28.88   0
   4   8   9   11.12   28.60   0
   4  10   9  203.46   34.37   0
   4  13   8  201.09   39.13   0
   6  13  10  111.87   43.58   0
   8   3   8  146.26   53.74   0
   8  10  11   82.63   53.38   0
   9  -1   4  139.62   54.85   0
   9  10  11  166.24   57.31   0
   9  13  11  -93.57   52.00   0
  10  11  11  -37.42   54.04   0
  11   1   5   85.19   55.58   0
  11   2   6   92.26   55.41   0
  13   2   4    4.24   52.20   0
  13   3   5    1.64   54.54   0
  13   7   8    5.45   49.19   0
   1   3   4 1620.17   26.18   0
   2   1   4 3891.16   29.28   0
   4  -4   0  309.14   32.28   0
   4   3   7  323.31   29.61   0
   5   6   9   75.87   33.64   0
   5  13   9   92.89   42.81   0
   6   5   9  204.22   38.21   0
   6   8  10   34.28   41.90   0
   7  -3   2  -35.24   41.86   0
   7   3   8  105.90   40.40   0
   7   7  10  203.72   42.36   0
   7  14  10  192.01   48.50   0
   8  15  10   88.60   45.24   0
   9   5   9  210.63   59.67   0
   9   7  10  160.55   57.65   0
   9  11  11   57.41   53.63   0
  10  -2   2   92.23   54.44   0
  12   1   4   30.51   56.87   0
  12   2   5   99.56   58.97   0
  12   3   6   26.90   59.80   0
  12  11  10  -21.72   50.84   0
   4   5   8 1232.67   31.50   0
   5   1   6   99.55   33.84   0
   5   4   8  786.34   32.53   0
   6  -3   2  468.57   38.88   0
   6  12  10  -26.02   46.35   0
   8  -2   3  109.07   50.24   0
   8   7  10   54.63   55.92   0
   9  15  10   69.76   50.26   0
  10   4   8   19.15   58.06   0
  10   8  10  126.08   60.08   0
  10  15  10   40.09   46.66   0
  11   9  10  -35.29   57.79   0
  12   6   8    3.34   60.76   0
  12   8   9  123.98   58.69   0
   2  -2   1 2901.20   34.37   0
   3   0   4   75.09   24.01   0
   6   2   7   37.13   35.29   0
   7   5   9  235.70   42.91   0
   8   5   9  114.23   52.11   0
  10   6   9   72.74   65.20   0
  11   5   8   73.10   55.95   0
  11  14  10  -26.04   48.03   0
   2   5   6  495.79   23.52   0
   2  10   6   26.86   30.46   0
   3  -1   3  182.65   24.59   0
   5   0   5  -31.52   31.86   0
   7   2   7  177.20   42.73   0
   7   8  10  273.61   47.27   0
   8  14  10  -60.15   49.06   0
   9  -3   1   60.38   51.85   0
   9   8  10  110.51   60.30   0
  11   7   9   40.06   61.68   0
  11  10  10   33.75   56.77   0
   2   0   3  507.54   22.77   0
   3   5   7 2437.84   30.14   0
   5   7   9   63.93   31.56   0
   5  12   9   70.49   44.12   0
   5  14   8  199.16   44.93   0
   6   1   6  441.05   37.12   0
   6   6   9   12.52   37.62   0
   7  -2   3  148.72   43.58   0
   7  13  10    5.88   46.79   0
   7  15   9  132.39   47.60   0
   8   8  10  -53.72   55.49   0
   9   4   8  151.15   56.29   0
   9  14  10  125.52   54.05   0
   9  16   9   38.36   47.89   0
  10  -1   3  230.69   57.22   0
  10   9  10  208.36   63.78   0
  10  14  10  111.91   52.89   0
  10  16   9   -3.30   42.11   0
  11  11  10   77.89   51.18   0
  11  12  10   49.65   53.05   0
  12   9   9   60.48   58.04   0
   2  -1   2  184.38   23.37   0
   3   3   6 1484.43   27.34   0
   4   6   8  282.63   31.71   0
   4  12   8  322.28   37.91   0
   6  -2   3  132.04   35.14   0
   6   4   8   19.42   36.85   0
   7   1   6   10.24   44.95   0
   7   9  10  110.12   49.96   0
   9   6   9   97.84   57.24   0
  10   0   4   23.82   55.28   0
  11  -1   2  110.35   54.20   0
   2   3   5 1831.23   25.76   0
   3  11   7  334.48   32.74   0
   5   8   9    3.53   36.31   0
   7   4   8  349.17   44.64   0
   7   6   9  201.72   45.02   0
   7  10  10   80.33   50.64   0
   7  12  10  -38.94   47.17   0
   8   4   8   46.73   49.75   0
   8   9  10  189.82   57.38   0
   8  13  10   51.14   50.17   0
   9   9  10    4.90   56.39   0
  10   1   5  -18.53   57.01   0
  10  10  10    3.63   61.21   0
  11   8   9  -87.90   61.03   0
  12   0   2   54.49   54.85   0
  12   7   8   30.20   54.58   0
  12  10   9 -108.92   56.23   0
  13   4   5   72.02   52.95   0
  13   7   7   23.12   56.09   0
   5   3   7  186.17   32.27   0
   5   5   8  128.37   32.53   0
   5  11   9    9.69   38.86   0
   7  -4   0   27.07   45.67   0
   8   6   9   -4.37   49.24   0
   8  15   9   30.42   50.04   0
   9   3   7   75.32   58.45   0
   9  10  10   78.06   59.67   0
  10   5   8  155.43   58.65   0
  10   7   9   23.13   60.68   0
  10  11  10  -90.34   55.99   0
  11   6   8   38.87   63.02   0
  12  11   9  -75.76   51.88   0
  12  12   9  -54.14   54.64   0
  13   2   3  -21.84   53.76   0
  13   3   4   24.85   54.16   0
   2   6   6  620.44   25.33   0
   2   9   6  215.61   28.45   0
   3   6   7 1110.97   29.36   0
   4   4   7  998.67   30.72   0
   5  -4   0  282.70   35.56   0
   6   7   9  278.67   38.24   0
   6  13   9   91.58   43.49   0
   8  10  10  121.15   54.02   0
   9  -2   2   84.53   54.01   0
   9  11  10  -22.19   57.85   0
   9  15   9  -32.14   52.70   0
  10  15   9   34.57   49.20   0
  11   1   4  -88.96   55.65   0
  11   2   5   23.00   56.78   0
  12   1   3   80.57   56.42   0
  12   3   5   30.51   58.87   0
   3  -4  -1  723.51   37.56   0
   4  -3   1    6.19   28.94   0
   4   1   5  136.79   29.52   0
   4   7   8   33.23   29.04   0
   4  11   8  -16.17   34.10   0
   7  14   9  -18.10   49.26   0
   8  -3   1    8.40   50.37   0
   9   7   9   71.75   58.88   0
  11   9   9  -59.27   60.08   0
  11  14   9  107.82   49.53   0
  12   2   4   59.54   58.33   0
  12   6   7   41.37   61.70   0
  12   8   8  140.57   57.27   0
   1   4   4  600.94   23.45   0
   4  13   7  232.97   40.54   0
   6  -4   0  457.15   40.15   0
   6   3   7  688.63   38.00   0
   7   7   9   81.68   41.31   0
   8   3   7  166.87   48.89   0
   9  -1   3   12.74   53.25   0
   9   5   8   47.35   58.57   0
   9  16   8   -9.92   50.91   0
  10  -2   1   51.84   55.34   0
  10   4   7  -32.96   59.12   0
  10   8   9   30.58   61.47   0
  10  16   8  -47.96   45.24   0
  11   5   7   28.62   61.91   0
  11  10   9  -15.11   62.11   0
  13   8   7  140.84   53.26   0
   1   2   3  669.46   23.40   0
   1   9   4  171.10   33.40   0
   2  11   5  244.84   34.46   0
   3   2   5  222.67   24.45   0
   3   7   7   -2.16   28.31   0
   3  10   7   10.46   30.52   0
   4  10   8  152.06   33.79   0
   5   2   6   27.89   32.22   0
   5  13   8   70.91   43.58   0
   6   8   9  616.12   37.97   0
   6  12   9   74.70   46.12   0
   7   3   7   89.73   39.84   0
   8   7   9  117.47   50.47   0
   9   0   4  117.74   54.89   0
  10   6   8   87.46   61.55   0
  10  14   9    7.66   55.03   0
  11   7   8   25.41   63.03   0
  11  11   9   95.02   56.32   0
  11  12   9   64.76   58.13   0
  12   9   8   21.19   62.38   0
   4   0   4 1098.63   30.24   0
   5   6   8  343.33   34.12   0
   7   5   8  125.91   42.80   0
   7  15   8   80.77   48.69   0
   8   5   8  156.59   45.71   0
   8  14   9   85.14   47.59   0
   9   8   9  104.27   60.08   0
   9  14   9   -1.34   54.21   0
  10   9   9  114.08   61.96   0
  13   9   7   20.08   48.77   0
   3   4   6  202.76   25.55   0
   3  12   6  -11.42   35.94   0
   6   9   9  113.91   39.98   0
   6  14   8  -74.77   46.81   0
   7   8   9  105.73   43.69   0
   7  13   9   59.42   48.84   0
   8  -2   2   82.20   51.09   0
   8   2   6  277.22   46.40   0
  12   7   7  242.54   58.90   0
  12  10   8   46.27   57.62   0
  13   1   1 -101.40   50.83   0
  13   7   6   42.32   58.21   0
   2   2   4 1089.78   23.50   0
   4  -1   3 1245.26   29.02   0
   4   3   6  503.98   29.40   0
   4   5   7    1.07   28.59   0
   5   4   7  121.66   32.18   0
   5  14   7   67.42   45.07   0
   6   2   6   98.04   35.73   0
   7   2   6  137.16   44.16   0
   8   8   9  -13.42   54.64   0
   9  -3   0  120.50   53.84   0
   9   4   7  123.92   57.35   0
  10  10   9  144.52   62.81   0
  11  -1   1   -0.60   54.81   0
  11   8   8  149.40   62.25   0
  12  11   8  -21.71   52.64   0
  12  12   8  -51.05   53.41   0
  13   2   2   92.99   55.27   0
  13   3   3   54.85   57.61   0
  13   4   4  -58.12   55.67   0
   2   4   5  612.05   21.95   0
   5  -3   1  484.97   35.54   0
   5   1   5   52.86   31.49   0
   5  12   8   44.62   43.96   0
   7   9   9  216.60   49.16   0
   7  12   9   97.65   47.64   0
   8  -1   3   96.59   48.22   0
   8  13   9   31.10   51.76   0
   8  15   8   73.24   49.18   0
   9   9   9  133.72   56.27   0
  10   0   3   43.54   56.37   0
  10   1   4  145.00   60.33   0
  10   7   8  -86.77   60.88   0
  10  11   9  148.29   57.54   0
  10  15   8  138.08   48.86   0
  11   6   7  -42.06   66.91   0
  11  14   8   91.47   50.00   0
  12   0   1  -30.88   52.83   0
   4  12   7   11.03   38.75   0
   5  -5  -2  101.10   41.28   0
   5   7   8  848.00   33.67   0
   6  -5  -2  178.10   43.56   0
   6  -3   1   28.66   38.14   0
   6   6   8  435.26   37.75   0
   7  10   9   -6.95   50.16   0
   8   4   7  231.75   47.77   0
   8   9   9  -49.61   55.21   0
   9  10   9   91.80   56.42   0
   9  15   8  102.39   51.78   0
  10   5   7   15.28   58.48   0
  11   0   2   11.61   59.09   0
  12   1   2   74.77   57.35   0
  12   3   4   32.43   58.34   0
  12   8   7   42.06   62.11   0
   3   1   4  156.70   23.39   0
   6   1   5  114.04   36.60   0
   6   4   7  440.21   37.19   0
   7   1   5  818.71   44.96   0
   7   6   8   -8.51   41.96   0
   8   6   8  173.15   46.05   0
   8  10   9  124.14   54.35   0
   9   3   6  151.38   57.34   0
   9  11   9   73.48   55.05   0
   9  16   7    8.98   52.25   0
  11   1   3   22.04   55.80   0
  11   9   8  -35.67   61.57   0
  12   2   3   28.24   59.40   0
  12   6   6  -11.95   58.08   0
  13   8   6   -6.58   54.25   0
   5   8   8  212.56   34.17   0
   5  11   8  112.51   38.19   0
   6  13   8   41.09   44.36   0
   7   4   7   53.23   41.19   0
   7  14   8   -1.90   51.00   0
  10   8   8  136.66   63.89   0
  10  14   8   73.73   55.91   0
  11  10   8  190.36   59.86   0
   3   5   6   29.83   24.95   0
   4   6   7  228.47   29.10   0
   6  -2   2   18.03   36.71   0
   6   7   8  128.49   39.82   0
   7  -1   3   64.19   42.72   0
   9  -2   1   -8.81   53.69   0
   9   7   8  115.90   59.20   0
  10   4   6   43.42   61.79   0
  11   5   6   48.81   61.07   0
  11   7   7    7.32   64.39   0
  11  11   8   26.53   54.73   0
  11  12   8   24.96   56.73   0
  12   9   7  -67.75   60.52   0
  13   9   6  -19.09   49.13   0
   1   8   4   83.32   29.96   0
   3  11   6  143.08   34.02   0
   4   2   5  439.47   29.81   0
   5   3   6  442.64   32.62   0
   5   5   7  358.37   32.95   0
   7  15   7   68.08   50.15   0
   8   3   6   97.21   50.75   0
   8   7   8   10.12   49.34   0
   8  14   8    1.59   48.67   0
   9  14   8  137.51   50.98   0
  10   6   7   55.54   58.03   0
  12  10   7  145.35   57.80   0
  13   7   5   72.77   60.22   0
   2  10   5  524.43   32.61   0
   3   0   3  171.47   23.25   0
   3   3   5   80.56   24.33   0
   4  11   7  142.47   35.98   0
   4  13   6   -4.67   41.71   0
   5  13   7   10.99   45.58   0
   6  12   8  195.91   46.88   0
   7   7   8  190.92   42.07   0
   9  -1   2  252.89   53.91   0
   9   8   8   37.05   61.54   0
  10   9   8  116.38   60.86   0
  12   7   6  123.58   57.49   0
  12  11   7  154.04   53.22   0
  12  12   7  -49.34   54.02   0
  13   2   1   19.07   55.59   0
  13   3   2   86.95   57.78   0
  13   4   3  -37.84   57.58   0
   2   5   5  137.49   22.96   0
   4   4   6   30.04   28.21   0
   4   7   7  370.88   31.36   0
   6   8   8   48.16   37.22   0
   7  -4  -1  207.01   45.72   0
   7   3   6  667.57   39.87   0
   8   5   7   72.93   44.41   0
   9   0   3  157.53   52.31   0
  10  10   8  -78.40   63.33   0
  10  11   8   78.84   61.78   0
  10  15   7   19.77   49.87   0
  11   8   7   68.11   63.21   0
  11  14   7   90.94   50.52   0
   1   7   4  738.06   28.46   0
   2   1   3    4.66   19.84   0
   6   5   7   75.40   35.49   0
   7   5   7  205.53   42.04   0
   8   8   8  233.34   52.17   0
   8  13   8   96.61   52.34   0
   8  15   7   52.34   50.05   0
   9  15   7   82.12   53.29   0
  11  -1   0   60.56   55.43   0
  11   6   6  226.50   67.23   0
  12   0   0   53.71   54.64   0
  13   8   5  -20.70   58.13   0
   1   1   2 4016.54   36.15   0
   3  -1   2  909.96   28.20   0
   3   6   6  242.29   26.52   0
   5  14   6   64.84   46.38   0
   6   9   8  251.49   40.74   0
   7   8   8  267.17   41.68   0
   7  12   8    7.00   49.61   0
   8   2   5  140.88   46.19   0
   9   4   6    3.74   55.59   0
   9   9   8   30.39   57.12   0
   9  16   6   20.02   50.59   0
  10  -1   1   73.78   56.19   0
  10   7   7  132.79   61.02   0
  11   9   7  120.83   62.54   0
  12   1   1  124.47   58.12   0
  12   3   3   -9.71   59.07   0
  12   8   6   39.57   59.23   0
   3  10   6  273.67   32.58   0
   4  -4  -1  112.96   34.42   0
   5   2   5  732.87   32.72   0
   5   6   7  199.19   33.26   0
   7   9   8   49.11   48.85   0
   8   9   8  111.95   56.23   0
   9  10   8  192.27   57.95   0
   9  11   8    8.85   57.01   0
  10   0   2  136.04   57.46   0
  10   5   6  131.74   58.00   0
  10  14   7   70.93   56.36   0
  11   0   1   46.41   60.33   0
  12   2   2  -38.34   59.25   0
  12   6   5   60.84   57.33   0
  13   9   5   34.90   50.16   0
   2   9   5   70.00   29.45   0
   4   1   4  859.30   28.75   0
   5  12   7  227.89   44.29   0
   7   2   5  216.59   41.89   0
   7  10   8  259.71   49.45   0
   7  14   7   73.21   54.26   0
   8  -2   1  182.87   51.80   0
   8  10   8  -48.34   56.58   0
   9  -3  -1  135.61   52.48   0
  11   1   2   16.90   56.55   0
  11   2   3   39.85   58.76   0
  11  10   7  140.60   61.37   0
  11  11   7   20.30   55.35   0
  11  12   7    6.05   56.09   0
  12   9   6   11.73   60.15   0
   1   3   3   16.98   20.54   0
   2   3   4 1028.08   23.48   0
   3   7   6  941.93   27.65   0
   3  12   5   90.38   37.05   0
   6  -4  -1  167.45   40.53   0
   6   2   5  126.27   36.58   0
   6   6   7  398.91   41.11   0
   8  -1   2   40.72   46.22   0
   8   4   6  228.43   44.33   0
   8   6   7   78.48   45.65   0
   9   3   5   34.45   56.60   0
   9  14   7   60.80   55.41   0
  10   8   7   48.46   61.40   0
  11   5   5  -27.49   63.61   0
  11   7   6   51.39   65.41   0
  12  10   6   15.10   58.32   0
  12  11   6  -24.99   56.86   0
  12  12   6  -20.00   54.38   0
  13   1  -1   47.69   50.39   0
  13   7   4  124.00   58.69   0
   4   5   6  695.99   31.26   0
   5   7   7   23.05   34.72   0
   6  13   7   71.96   44.61   0
   7  -3   0   20.45   42.24   0
   7   6   7  169.76   42.20   0
   7  15   6   51.69   51.52   0
   8  14   7  126.64   49.85   0
   9   7   7   12.38   58.28   0
  10   4   5  -67.52   61.87   0
  10  15   6   36.66   50.23   0
  11  14   6    0.85   49.74   0
  12   7   5   91.30   58.28   0
  13   3   1  119.14   58.14   0
  13   4   2  -45.93   58.90   0
   2   8   5   59.33   27.89   0
   4  12   6   47.64   40.04   0
   5  -4  -1  946.34   39.22   0
   5  11   7  -21.96   37.51   0
   6   4   6  502.26   37.25   0
   7   4   6  107.97   40.90   0
   9   5   6   17.66   56.34   0
  10   6   6 -141.43   59.95   0
  10   9   7  -43.02   61.99   0
  13   8   4  -25.29   56.95   0
   2   0   2  124.19   22.64   0
   2  11   4  478.21   36.67   0
   3   2   4  838.29   25.01   0
   3   4   5   60.86   24.32   0
   4   0   3  124.18   27.51   0
   4   3   5 1774.61   30.72   0
   5   1   4  -21.66   31.19   0
   5   8   7  108.27   34.31   0
   8   7   7  319.19   47.96   0
   8  15   6   91.93   49.94   0
   9  13   7   73.17   55.54   0
   9  15   6   33.16   53.17   0
  10  10   7   37.66   63.20   0
  10  11   7   39.93   59.49   0
  11   8   6  -13.53   63.90   0
   6   1   4  355.89   34.78   0
   6   7   7  723.56   37.81   0
   6  12   7   -7.19   47.29   0
   6  14   6  109.07   47.85   0
   7  -2   1    5.22   41.06   0
   7  13   7   54.19   49.84   0
   8  13   7   69.99   53.35   0
   9   8   7  221.52   59.12   0
  10  -2  -1  185.96   54.94   0
  12   8   5  -44.21   59.62   0
  13   9   4   20.16   50.21   0
   4  -3   0   59.92   30.18   0
   7   7   7  121.01   42.53   0
   9  -1   1   19.15   53.94   0
   9   9   7  268.47   61.37   0
  10  14   6  -48.58   56.47   0
  11  -1  -1   32.47   55.86   0
  11   6   5  -53.68   63.52   0
  11   9   6    7.35   63.19   0
  11  12   6  -41.54   57.03   0
  12   1   0  -38.57   57.45   0
  12   2   1  131.99   61.33   0
  12   3   2  -37.64   59.88   0
  12   6   4  -78.49   57.85   0
   4  -1   2  132.58   29.03   0
   4   6   6  191.21   31.26   0
   4  13   5   89.94   42.84   0
   5   0   3  510.68   32.16   0
   5   5   6  132.14   32.67   0
   6  -3   0  678.85   40.17   0
   8   5   6  361.47   45.49   0
   8   8   7   79.95   47.92   0
   9   0   2  -53.82   51.52   0
   9  10   7   44.27   59.97   0
   9  11   7  -46.84   59.94   0
  10   7   6   49.12   59.25   0
  11  10   6  221.34   61.62   0
  11  11   6   77.85   54.89   0
  12   9   5   -6.06   61.18   0
  12  10   5   -7.33   61.98   0
  12  12   5  -71.08   52.92   0
  13   1  -2   -9.32   52.46   0
  13   7   3   47.91   60.96   0
   4  11   6  111.80   36.23   0
   5  -3   0  291.81   37.13   0
   5  14   5   69.92   47.67   0
   6   8   7  255.90   36.05   0
   7   8   7  432.78   42.71   0
   7  12   7   68.21   48.57   0
   9   4   5   55.15   54.71   0
   9   6   6  232.47   56.21   0
   9  14   6   26.69   53.26   0
  10  -1   0   82.20   55.11   0
  10   5   5   74.92   57.99   0
  10  15   5    6.03   49.75   0
  11   0   0   45.52   58.40   0
  11   2   2  161.44   58.81   0
  11  14   5  -99.73   46.24   0
  12  11   5   -5.16   52.76   0
  13   4   1   91.38   57.23   0
   3  11   5  398.03   35.80   0
   6   3   5  191.06   36.63   0
   6   9   7  123.24   40.07   0
   7   5   6   83.66   40.29   0
   7  14   6   73.88   53.15   0
   8  -3  -1  156.94   51.07   0
   8   2   4   86.54   45.87   0
   8   9   7   24.17   54.00   0
   8  10   7  110.90   56.44   0
   8  14   6  -33.28   53.48   0
  10   1   2   -3.62   56.50   0
  10   8   6  108.64   59.80   0
  11   1   1   45.26   54.61   0
  11   5   4   63.32   63.65   0
  11   7   5 -184.78   64.98   0
  12   7   4  127.10   59.45   0
  13   2  -1  146.95   55.49   0
  13   3   0  -15.21   55.93   0
   2  -1   1 1589.43   28.17   0
   2   4   4 2500.23   28.62   0
   7  10   7   60.14   49.70   0
   7  15   5  101.68   52.44   0
   9  15   5   66.76   55.24   0
  13   8   3   80.67   53.43   0
   4   2   4  919.23   31.29   0
   4   7   6  130.86   28.53   0
   4  10   6  -13.33   31.81   0
   5  12   6  158.07   44.44   0
   6  -5  -3   40.11   43.90   0
   6  13   6   36.41   47.07   0
   8   6   6  106.28   45.29   0
   8  15   5   33.70   51.26   0
   9  -3  -2  300.58   54.74   0
   9   3   4   56.00   55.02   0
  10   4   4  109.23   62.00   0
  10   9   6   25.37   60.91   0
  11   8   5  124.57   65.79   0
  12   8   4 -114.63   62.87   0
  13   9   3  -80.70   50.29   0
   3   1   3 3348.79   30.39   0
   4   4   5   37.73   27.73   0
   5   6   6  562.69   34.18   0
   7  -4  -2    2.15   45.46   0
   7   2   4  110.69   40.91   0
   8  -2   0  -34.68   50.72   0
   8   4   5   22.54   43.47   0
   9  13   6   91.34   56.81   0
  10   6   5  168.99   59.44   0
  10  10   6  153.85   61.43   0
  10  11   6  -44.50   59.68   0
  10  14   5    2.96   55.16   0
  11  12   5  -50.22   60.08   0
  12   0  -2  -25.27   57.28   0
  12  12   4 -117.84   54.51   0
   2   2   3 4579.28   32.91   0
   7   6   6  155.93   41.76   0
   7  13   6  135.42   52.57   0
   8  -1   1  238.50   45.24   0
   8  13   6   47.75   56.62   0
   9   5   5  354.50   54.17   0
   9   8   6  -39.86   62.33   0
  10  15   4  -74.92   50.93   0
  11   6   4  225.68   66.52   0
  11   9   5  374.51   63.65   0
  11  11   5   43.38   58.81   0
  11  14   4   12.72   47.47   0
  12   1  -1    5.52   58.83   0
  12   3   1  -44.64   60.51   0
  12   6   3  -15.73   59.07   0
  12   9   4  -71.97   62.06   0
  12  10   4   92.27   61.72   0
  12  11   4  -44.52   56.93   0
  13   7   2  -21.24   61.22   0
   1   4   3 4480.47   37.36   0
   2  10   4   24.60   33.05   0
   6  14   5   37.70   51.25   0
   8   7   6  234.62   47.87   0
  11  -1  -2   34.52   56.21   0
  11  10   5  126.44   61.71   0
  12   2   0   74.59   59.12   0
  13   4   0   96.29   57.47   0
   1   9   3  220.25   34.47   0
   3   3   4  873.67   25.53   0
   3   6   5  294.25   25.63   0
   3  10   5   41.69   32.23   0
   4  12   5   62.08   41.95   0
   5   2   4 1413.33   33.43   0
   5   7   6  575.87   35.43   0
   5  11   6   58.76   37.72   0
   6   2   4  277.37   35.24   0
   6  12   6  262.04   49.02   0
   7   4   5  221.77   41.07   0
   9  -2  -1  -15.61   52.91   0
   9   9   6   91.88   59.43   0
   9  11   6 -171.55   59.96   0
   9  14   5  137.19   57.10   0
  10  -2  -2   16.30   54.84   0
  10   7   5  236.49   59.82   0
  13   2  -2   74.51   53.93   0
  13   3  -1  -16.37   57.72   0
  13   8   2   73.87   56.82   0
   3  12   4  219.78   38.87   0
   5   4   5  860.77   34.41   0
   5  13   5    7.38   47.05   0
   6   4   5  102.30   35.98   0
   8   3   4  122.14   46.26   0
   8  14   5   48.62   57.27   0
   9  10   6  106.83   57.92   0
   9  15   4   13.22   54.47   0
  10   5   4  302.86   62.06   0
  11   2   1  -56.28   61.76   0
  11   7   4 -150.83   67.62   0
  12   5   2 -107.17   63.27   0
  12   7   3  -43.57   60.76   0
  13   9   2  -58.15   52.30   0
   5  -5  -3  252.39   43.54   0
   5   8   6   59.69   33.77   0
   6   7   6   82.64   37.34   0
   7   7   6  244.94   42.12   0
   7  12   6   61.10   49.29   0
   8  -4  -3  110.05   49.70   0
   8   5   5  126.98   44.91   0
   8   8   6  585.21   46.04   0
   8  15   4   41.97   54.25   0
   9  -1   0   52.38   54.53   0
   9   4   4    5.74   56.55   0
  10  -1  -1  -29.95   56.72   0
  11   1   0  106.51   57.20   0
  11   5   3   49.26   63.59   0
   2   5   4 1391.29   27.22   0
   3   9   5   27.40   30.36   0
   4  -5  -3  521.81   43.68   0
   4   1   3 1170.39   30.95   0
   4   5   5   17.50   27.92   0
   5  14   4   35.49   48.86   0
   8   9   6  142.60   52.40   0
   8  10   6   28.31   56.84   0
  10   1   1   50.25   55.38   0
  10  14   4   95.25   53.96   0
  10  15   3   44.09   49.23   0
  11  14   3   65.27   46.92   0
  12   8   3 -127.54   59.21   0
  12  12   3   44.35   50.70   0
   3   0   2  506.06   23.97   0
   4  13   4   28.75   44.04   0
   6   1   3  -10.86   36.87   0
   6   8   6  134.42   39.07   0
   7  -2   0  131.16   42.53   0
   7   8   6   10.02   41.06   0
   9  13   5   52.53   56.28   0
  10   9   5  192.15   60.05   0
  10  10   5  274.56   64.36   0
  10  11   5   88.17   59.66   0
  11   8   4   46.55   62.56   0
  11  12   4 -101.53   58.07   0
  12   0  -3   45.90   54.09   0
  12   9   3  178.39   63.04   0
  12  11   3  -27.30   56.27   0
   5   1   3  840.58   34.56   0
   6  -4  -2  187.99   39.94   0
   6   9   6   44.62   42.83   0
   7  -1   1  315.15   40.34   0
   7   3   4  482.00   42.01   0
   7   5   5  116.02   39.46   0
   7   9   6  147.58   46.00   0
   7  10   6  230.91   49.24   0
   8   2   3   40.07   49.18   0
   9   7   5  266.03   53.74   0
  10   4   3 -109.16   61.06   0
  10   6   4  -26.67   59.17   0
  11   9   4  315.80   62.77   0
  11  10   4  -28.94   64.84   0
  11  11   4  -22.26   54.80   0
  12   3   0   34.10   60.02   0
  12   6   2  -22.81   58.72   0
  13   2  -3  -17.96   52.12   0
  13   4  -1   23.30   55.34   0
   2   9   4  179.59   30.03   0
   4   3   4   39.95   27.18   0
   4  11   5    3.81   36.25   0
   6  13   5  245.57   46.60   0
   8   6   5  132.02   45.59   0
   8  13   5  127.29   54.11   0
  11   6   3  -66.37   63.17   0
  12   2  -1   72.31   58.31   0
  13   3  -2  -11.88   52.69   0
   1   2   2 1252.56   25.91   0
   5  12   5   64.03   45.09   0
   8  -3  -2   15.16   50.49   0
   9   5   4  156.51   53.95   0
   9   8   5  175.93   61.49   0
   9  14   4  -40.18   53.90   0
   9  15   3  -28.37   54.36   0
  12   7   2   84.40   62.51   0
  13   9   1  -60.17   49.74   0
   3   4   4   -2.40   25.66   0
   4   6   5   72.83   28.60   0
   6   3   4  166.75   36.35   0
   6  14   4  112.04   50.75   0
   8   4   4  186.17   44.01   0
   9  -3  -3    0.20   52.43   0
   9  11   5  140.65   59.83   0
  10   7   4   29.22   59.36   0
  10  14   3   30.18   54.77   0
  10  15   2   60.32   46.81   0
  12   5   1   56.06   60.20   0
  12  12   2   -2.90   47.22   0
   1   8   3  396.76   33.32   0
   2   8   4  304.77   29.71   0
   2  11   3  170.66   37.60   0
   4   0   2 3029.70   32.91   0
   6  -3  -1  197.77   39.11   0
   7   6   5  -12.76   43.55   0
   7  15   3  -36.65   53.56   0
   8   7   5   91.71   47.72   0
   8  14   4  102.74   55.20   0
   9   9   5   65.50   58.27   0
   9  10   5  171.67   57.25   0
  10  -2  -3   59.24   54.85   0
  11   0  -2   98.18   57.45   0
  11   2   0  125.86   58.88   0
  11   7   3  -65.68   64.56   0
  12   8   2   93.68   57.92   0
  12  11   2 -163.20   57.37   0
  13   7   0   13.10   58.35   0
   3  -4  -2  168.66   38.13   0
   3  -1   1  209.07   26.42   0
   3  11   4   13.96   35.42   0
   4  10   5  157.62   32.37   0
   5   0   2  123.27   30.92   0
   6  -2   0   51.61   36.55   0
   6  12   5  159.36   49.89   0
   7   2   3   55.06   37.70   0
   7  14   4    0.97   54.65   0
   8  -2  -1  125.62   51.08   0
  10   5   3   -1.61   60.15   0
  10   8   4  -38.72   59.27   0
  11   1  -1   44.87   54.28   0
  11   5   2  100.04   59.77   0
  11  12   3   24.56   55.65   0
  12   0  -4  -56.05   57.04   0
  12   9   2  128.32   59.78   0
  12  10   2  100.82   54.91   0
   2   1   2 3023.79   31.05   0
   2   3   3  110.71   22.23   0
   5  -4  -2   42.46   35.33   0
   7  12   5   18.08   50.06   0
   8  -1   0   61.48   44.33   0
   8   8   5  -62.23   47.69   0
   9  -2  -2   72.12   52.23   0
   9   6   4   97.96   49.42   0
   9  13   4   60.75   56.14   0
  10   9   4  202.02   58.40   0
  10  11   4  -36.20   59.12   0
  11   8   3    0.70   61.56   0
  11  11   3 -153.06   53.83   0
  12   6   1 -132.14   57.10   0
  13   3  -3   31.77   51.53   0
  13   4  -2   12.44   51.30   0
   5  11   5  164.24   37.78   0
   5  13   4   95.85   48.25   0
   7   4   4  206.07   39.56   0
   8   3   3   81.78   44.51   0
   8   9   5   47.55   54.92   0
   8  10   5  240.75   56.14   0
   9   4   3  201.45   52.22   0
   9  15   2   12.26   52.22   0
  10   0  -1  103.23   58.74   0
  10   1   0   33.35   54.30   0
  10  10   4  -27.15   60.22   0
  11   9   3  -25.87   62.52   0
  11  10   3   18.83   60.60   0
  12   1  -3   12.21   58.17   0
  12   2  -2   12.72   62.11   0
  12   3  -1  -60.65   59.84   0
   1   7   3 2125.78   34.90   0
   4  12   4   30.27   41.90   0
   7  -4  -3  264.24   45.40   0
   7   7   5   53.52   41.22   0
   9  -1  -1  158.37   54.50   0
   9  14   3   62.03   54.02   0
  10   6   3  140.81   61.86   0
  10  14   2   65.50   51.98   0
  11   4   1  -48.06   60.30   0
  11   6   2  204.95   65.93   0
  12   7   1  -52.29   61.02   0
   4  -4  -2  528.73   36.34   0
   4  -1   1  847.51   29.80   0
   4   4   4  117.14   27.85   0
   5  -3  -1 1035.84   38.81   0
   5   7   5  557.78   34.19   0
   6   2   3  983.08   35.92   0
   6   7   5  199.82   36.91   0
   6  11   5   -1.66   44.49   0
   7   1   2  370.26   38.62   0
   7   8   5  283.03   43.63   0
   8  13   4  194.19   53.29   0
   8  15   2  -33.57   55.25   0
   9   7   4   -1.73   53.15   0
  10   4   2  184.29   58.31   0
  12   5   0   -8.17   62.82   0
  12  11   1   45.97   51.35   0
  13   7  -1  -11.18   51.70   0
   3  -3  -1    7.54   30.12   0
   3   5   4   21.37   25.18   0
   4   2   3 1495.46   30.53   0
   5   8   5  283.18   34.06   0
   6   4   4  804.13   36.62   0
   6  13   4   40.90   47.51   0
   7  10   5  126.72   48.93   0
   7  13   4   54.42   52.61   0
   8  -4  -4  150.85   50.55   0
   8  14   3    0.07   54.89   0
  11  -1  -4   58.79   55.11   0
  12   8   1   -4.05   58.21   0
  12   9   1  -19.69   61.52   0
  12  10   1 -101.60   55.97   0
  13   4  -3   17.06   50.89   0
   3  10   4  634.47   33.02   0
   3  12   3   -3.10   40.07   0
   4  13   3  222.00   45.95   0
   5   2   3   93.91   30.53   0
   5   4   4  250.20   32.66   0
   6   8   5  145.77   37.20   0
   6   9   5  361.48   42.08   0
   6  14   3   15.23   54.24   0
   8   2   2   12.80   47.64   0
   8   6   4   63.74   47.24   0
   9   8   4  -23.54   58.59   0
   9  11   4   41.42   56.92   0
   9  15   1    4.18   50.56   0
  10   7   3    6.42   58.99   0
  11   7   2   20.94   62.69   0
  12   0  -5   56.81   53.82   0
   4  -3  -1  209.35   31.35   0
   6  -5  -4  176.32   43.90   0
   7  -3  -2  215.84   41.20   0
   7   5   4  -35.04   38.99   0
   9   5   3   64.38   49.46   0
   9   9   4   45.86   58.56   0
   9  10   4   33.44   56.99   0
   9  13   3  108.04   53.41   0
  10   3   1   23.40   61.13   0
  10  11   3   -3.70   59.76   0
  11   0  -3   33.00   57.18   0
  11   1  -2  116.56   56.27   0
  11   2  -1  115.36   57.97   0
  11   8   2  173.70   63.79   0
  11  11   2  158.93   52.16   0
  12   6   0   26.97   56.34   0
   5  12   4   70.49   45.79   0
   7   3   3  260.63   38.59   0
   8   4   3  -25.06   43.36   0
   9  -3  -4   37.02   52.27   0
   9  14   2  -29.28   53.29   0
  10  -2  -4   97.37   53.80   0
  10   5   2  104.55   58.94   0
  10   8   3   81.60   57.98   0
  10   9   3   65.27   61.07   0
  10  10   3   65.04   62.63   0
  10  14   1 -103.30   47.28   0
  11   9   2  -60.03   61.86   0
  11  10   2   24.84   59.14   0
  12   1  -4  -34.24   55.76   0
  12   2  -3  -26.27   61.97   0
  12   3  -2   45.74   58.77   0
  12  11   0  -59.37   51.45   0
   4  11   4  155.30   38.17   0
   6   1   2  294.54   34.19   0
   7  -2  -1  -47.57   40.28   0
   7  12   4   -4.19   52.56   0
   8   7   4   97.01   44.97   0
   8  15   1   16.37   54.51   0
  12   7   0   26.02   55.87   0
   4   5   4  630.23   29.80   0
   6   5   4  392.75   37.77   0
   6  12   4   87.43   49.55   0
   8  -3  -3  298.93   51.10   0
   9   6   3  -90.97   48.13   0
   9  15   0    1.48   44.72   0
  10  -1  -3   53.89   56.11   0
  11   4   0  183.69   58.98   0
  11   6   1  -95.38   62.38   0
  12   5  -1  151.27   59.92   0
  12   8   0   15.23   57.11   0
  12   9   0   68.41   58.81   0
  12  10   0   71.14   49.38   0
   3   1   2  261.11   23.25   0
   5   5   4  836.63   33.88   0
   7   6   4  235.02   40.08   0
   8   8   4  292.89   44.39   0
   8   9   4  161.05   53.81   0
   8  10   4  -14.41   55.96   0
   8  13   3   43.19   52.09   0
  10   0  -2   74.46   57.28   0
  10   6   2   37.60   61.72   0
   2   4   3 1012.56   26.02   0
   3   3   3 2683.68   29.90   0
   5   1   2  253.28   32.68   0
   5  13   3   50.55   46.96   0
   6   3   3  763.31   36.47   0
   8  -2  -2  147.85   50.62   0
   8  -1  -1   96.90   46.20   0
   8  14   2   95.65   51.52   0
   9  -2  -3   48.94   49.41   0
  10   4   1  166.83   57.23   0
  10  14   0  -17.65   44.94   0
  11  -1  -5  -47.77   53.82   0
  11   7   1   95.86   65.34   0
  11  11   1  -64.15   52.18   0
  12   6  -1  182.53   57.34   0
   4   1   2  821.72   29.55   0
   5  11   4   23.30   38.74   0
   6   0   1   -0.97   33.82   0
   7   7   4   97.62   39.54   0
   7  13   3   -3.64   52.84   0
   8   3   2  328.52   44.38   0
   8   5   3  346.61   43.20   0
   9  -1  -2   30.36   54.14   0
   9   0  -1   24.52   49.49   0
   9   7   3   99.40   50.98   0
   9  11   3   67.30   55.62   0
   9  13   2   34.87   52.33   0
   9  14   1   18.39   50.84   0
  10  11   2  184.74   57.01   0
  10  13   1  -57.33   52.84   0
  11   8   1   18.64   63.29   0
  11  10   1   -4.72   59.68   0
  12   1  -5  -36.87   56.10   0
  12   3  -3  -64.01   58.42   0
   4   6   4    5.02   30.27   0
   5   3   3   86.33   30.89   0
   6   6   4   -7.80   36.42   0
   6  11   4  191.19   44.86   0
   7   4   3 1079.94   40.35   0
   9   8   3   12.93   56.74   0
   9  10   3  186.36   58.64   0
  10   7   2  181.69   58.10   0
  11   2  -2  -33.47   57.81   0
  11   5   0  155.31   59.71   0
  11   9   1    0.54   59.59   0
  12   2  -4  110.84   58.15   0
  12   7  -1   28.38   56.70   0
  12  10  -1  144.87   46.31   0
   2   0   1  483.57   22.64   0
   4   3   3  992.73   28.54   0
   5   6   4 1220.69   34.05   0
   7   8   4  -12.55   39.73   0
   9   9   3   51.19   56.85   0
  10   8   2   95.50   57.94   0
  10  10   2  138.08   60.09   0
  12   8  -1  151.36   55.70   0
  12   9  -1   69.84   54.33   0
   5   2  -6   81.58   38.57   0
   5   4   4  242.53   37.25   0
   7   4  -2  376.41   47.26   0
   8   4  -2   59.67   50.59   0
   9   1  -8   18.47   53.75   0
  10   4   0   43.80   61.58   0
  11   3  -2 -127.61   57.28   0
  11   3   5   -5.95   69.67   0
  12   1  -5  -15.26   55.32   0
  13   1  -2   26.34   51.25   0
  13   1   3  153.29   51.09   0
   2   2  -1 2443.09   32.28   0
   3   3   1  816.00   27.79   0
   3   3   2 3982.89   35.53   0
   7   4   6   93.38   45.38   0
   9   4  -1  123.53   57.29   0
   9   4   5  113.00   66.73   0
  10  -1   9  -26.43   62.94   0
  10   4   3  198.27   65.94   0
  13   1  -1   14.61   58.40   0
  13   1   2  -92.65   55.47   0
   3   1  -6   29.83   32.16   0
   4   1  -7   50.29   37.40   0
   4   2  -5   36.78   33.58   0
   5   1   9   44.69   46.00   0
   5   4   1  411.70   34.72   0
   5   4   3  277.87   35.62   0
   6   4   5  121.82   42.55   0
   8  -1  10   38.64   61.14   0
   9   2  -6  -28.96   56.88   0
  10   1  -7   20.06   56.41   0
  10   3   6   21.46   67.29   0
  11  -1   8  -57.62   63.18   0
  11   1  -6   76.21   55.42   0
  11   3   4  250.87   70.67   0
  13   1   0  103.01   50.19   0
  13   1   1  119.48   53.39   0
   2   2   3 4643.19   39.96   0
   4   3  -2  409.46   30.66   0
   5   4   2   47.33   34.80   0
   6   1  -8  372.46   46.22   0
   8   1  -8  258.06   53.02   0
   8   4  -1  321.60   52.04   0
   9   0  -9  158.70   55.63   0
   9   2   8   38.76   63.48   0
   9   4   0  182.88   58.02   0
  10   1   8  -21.91   60.94   0
  10   2  -5  -44.88   57.68   0
  11  -2   8  -16.27   55.66   0
  12   0  -6  -32.96   54.28   0
  12   1   5   74.18   60.99   0
  12   2  -1   77.71   58.79   0
  12   2   3   99.81   63.74   0
   2   0   7  854.37   43.23   0
   4   0   9   65.51   44.54   0
   5   2   8   24.97   40.96   0
   6   4   0  638.98   41.62   0
   7   1  -8   11.61   52.96   0
   7   4  -1   94.44   40.74   0
   7   4   5  224.75   47.45   0
   9   4   4    9.93   56.00   0
  11   3   2   61.92   69.34   0
  11   3   3  108.25   65.22   0
  12   2   0   58.58   62.67   0
  12   2   1   90.82   65.29   0
  12   2   2  -29.19   60.40   0
  13   0   3  -87.23   52.12   0
   1   1  -1 1207.47   33.33   0
   4   3   5 1775.03   35.06   0
   6  -1  10  185.83   56.52   0
   6   2  -6  244.51   42.17   0
   6   4   4  773.39   41.20   0
   7  -1  10  -39.83   60.45   0
   8   1   9  271.53   61.31   0
   8   2  -6  229.46   56.30   0
   8   4   0   52.78   47.82   0
   9   0   9   24.20   62.74   0
   9   4   1   31.31   50.47   0
   9   4   2    0.04   50.70   0
  10   3  -2  120.62   60.28   0
  10   3   5  122.28   66.50   0
  11   0  -7   84.93   56.48   0
  12  -1  -7  -15.57   49.03   0
  13   0  -2  -14.11   53.36   0
  13   0   2   14.79   51.11   0
   2   2   0 5469.42   41.83   0
   5   0  -9  533.30   47.68   0
   6   1   9  470.12   52.39   0
   6   4   1  185.41   39.55   0
   7   2  -6  259.57   48.38   0
   7   4   0  306.58   41.16   0
   7   4   4  161.40   48.38   0
   9   3   6  147.70   66.92   0
  10   0  -8  131.55   53.72   0
  11   0   7   69.49   65.14   0
  12  -1   6   38.54   54.34   0
  13   0  -1  -19.60   55.49   0
  13   0   1  -71.39   55.87   0
   2   2   2 2300.77   32.28   0
   6   2   8  428.06   50.28   0
   7   1   9   -4.84   57.99   0
   8   0  -9   59.97   55.27   0
   8   2   8  105.04   57.48   0
   8   4   1  287.00   46.47   0
   8   4   2  379.91   51.35   0
   9   1  -7  238.80   53.37   0
  10   0   8  -57.74   60.65   0
  10   3  -1   -2.50   63.07   0
  11   1  -5  127.75   58.27   0
  12   0  -5  -74.33   56.49   0
  13   0   0  -52.07   48.72   0
   2   2   1 2622.50   34.18   0
   3   0   8  229.06   41.50   0
   3   1   7  192.69   36.69   0
   4   1   8  134.38   41.31   0
   4   3  -1   28.44   29.06   0
   7   4   1  300.29   43.06   0
   7   4   2  132.26   41.83   0
   7   4   3 1076.72   45.19   0
   9  -1   9   31.79   62.86   0
   9   2  -5   19.46   55.58   0
  10  -1  -9   44.28   53.34   0
  10   1  -6   25.92   56.74   0
  10   2   6  -28.98   65.34   0
  10   3   4  189.79   65.42   0
  11  -1  -8   35.22   56.64   0
  11   2  -2   13.18   60.58   0
  11   2   4   12.11   68.98   0
  12   1  -2  -80.60   60.28   0
   1   0   5    3.70   40.07   0
   1   1   2 4204.62   47.63   0
   4   3   4   16.01   32.50   0
   7   0  -9   30.20   54.90   0
   8   3   6   12.31   59.39   0
   9   1   8   86.59   65.92   0
   9   3  -2  108.38   57.61   0
  10   3   0  197.42   63.75   0
  11  -2  -9  -12.83   54.04   0
  11  -1   7  177.09   63.11   0
  12  -1  -6 -137.03   55.90   0
  12   1  -1  -44.76   60.55   0
   6   0  -9  145.57   51.53   0
   6   3   6  101.76   43.10   0
   8   0   9  103.59   60.32   0
   9  -2   9  -79.18   60.04   0
   9   3   5  -32.84   63.17   0
  10  -1   8   98.36   61.77   0
  10   3   1   43.04   64.00   0
  10   3   2  219.26   66.16   0
  11   0  -6   71.36   60.65   0
  11   2  -1  113.92   65.53   0
  11   2   3   -8.12   67.82   0
  12   0   4   16.66   59.85   0
  12   1   0   11.71   63.09   0
   3   2   5  239.94   31.73   0
   5   1  -7  232.79   40.51   0
   5   3  -2  123.91   32.93   0
   7   3   6  590.71   54.22   0
   8  -1 -10   -7.26   54.89   0
   8   1  -7   59.47   52.62   0
   8   2  -5   78.37   52.60   0
  11  -2   7   94.53   60.02   0
  11   1   5   50.04   61.43   0
  11   2   2  156.54   63.94   0
  12  -2  -7   68.07   51.60   0
  13  -1  -1 -145.78   51.06   0
  13  -1   0   11.32   49.07   0
   4   3   3 1005.41   33.02   0
   5   0   9  200.50   45.54   0
   5   3   5  -31.99   38.56   0
   8   3  -2  204.73   52.86   0
   9   0  -8  192.02   57.18   0
   9   3  -1  329.48   54.78   0
   9   3   4   39.59   59.02   0
  10  -2   8   87.02   62.01   0
  10   0  -7   77.23   55.94   0
  10   2   5  -11.19   66.31   0
  11  -3   7  -17.95   54.09   0
  12  -2   5   -8.30   53.34   0
   4   3   1   90.64   30.29   0
   4   3   2  144.17   30.00   0
   6   2  -5   37.09   41.10   0
   7   1  -7  408.91   52.94   0
   7   2  -5  209.39   47.14   0
   9   0   8  115.15   61.21   0
   9   3   0  -51.89   55.69   0
  10  -3   8    1.98   60.04   0
  10   1  -5   48.59   58.75   0
  11  -1  -7  141.47   59.83   0
  12  -1  -5  -31.96   56.34   0
   4  -1   9   54.56   47.50   0
   5  -1 -10  554.72   48.75   0
   6   0   9  173.48   52.66   0
   6   1  -7   23.63   42.87   0
   6   3  -2  657.29   37.58   0
   7  -1 -10   73.26   54.81   0
   7   3  -2  171.23   42.72   0
   8  -1   9   73.69   61.53   0
   9   1  -6   22.04   56.65   0
   9   3   1  435.39   50.74   0
   9   3   2   50.82   53.64   0
   9   3   3   46.91   53.15   0
  10   0   7   50.88   60.66   0
  10   2  -2  165.84   64.12   0
  11  -1   6  -15.32   64.45   0
  11   1   4 -120.15   64.05   0
  12   0   2   44.07   61.04   0
   3  -1  -9   60.99   45.53   0
   4   0  -8  125.37   42.14   0
   5   1   8 1015.72   44.75   0
   5   3  -1 2020.85   37.64   0
   6   3   5  233.76   41.06   0
   7   3   5  205.18   45.29   0
   8   3  -1   70.57   45.08   0
   9  -1  -9   18.26   55.10   0
  10   2   4   38.25   62.30   0
  12   0  -1  118.13   58.25   0
   3   2  -2 2282.96   36.16   0
   5   3   4  934.61   36.74   0
   6  -1 -10   72.48   51.84   0
   7   1   8   88.46   54.05   0
   8   3   4  150.11   51.03   0
  10  -1  -8   23.70   55.37   0
  10   2  -1   89.79   60.78   0
  10   2   3  318.70   66.72   0
  11  -2  -8  -52.37   55.01   0
  11   1   3  -53.31   65.62   0
  12  -2  -6  122.04   51.54   0
  12  -1   3  183.19   58.64   0
   4   1  -6 1377.49   39.64   0
   6   1   8   92.62   46.06   0
   6   3  -1   17.59   41.07   0
   7   3  -1  134.61   39.97   0
   8   0  -8  162.78   52.02   0
   8   3   0  277.24   45.38   0
   8   3   3   87.96   50.05   0
   9  -1   8   88.69   58.14   0
   9   2   5  197.00   62.77   0
  10  -1   7   23.98   57.77   0
  11  -3  -9   20.00   52.25   0
  11  -2   6  -55.46   59.61   0
  11   1  -1  120.46   65.12   0
  11   1   2   92.76   66.09   0
   3   1  -5  864.91   35.32   0
   3   2   4  837.49   30.16   0
   5   3   0  -11.95   33.65   0
   5   3   3  108.39   34.97   0
   6   3   4  170.55   41.65   0
   7  -1   9  140.45   58.24   0
   7   3   4  484.75   46.85   0
   8   1  -6  252.73   54.74   0
   8   2   6  371.58   53.56   0
   8   3   1   -9.32   46.62   0
   9  -2 -10   93.44   54.10   0
  10  -2  -9   71.20   53.26   0
  10   0  -6   36.91   56.52   0
  10   1   5  -39.08   60.80   0
  10   2   2  106.99   63.95   0
  11  -3   6   73.91   58.64   0
  11  -1  -6  -57.12   58.65   0
  11   1   0  109.53   65.96   0
  12  -1  -3  122.54   58.24   0
   5   3   1  156.53   34.43   0
   5   3   2    7.61   35.55   0
   7   3   0   -5.43   42.31   0
   8   0   8   49.29   58.47   0
   9   0  -7   -5.72   53.93   0
  10  -2   7  -51.37   62.84   0
  11   0   4  172.96   58.64   0
  12  -2   3 -123.52   59.88   0
  12  -1   2  138.66   53.77   0
   2  -2   8  439.15   50.37   0
   4   1   7   -3.13   40.31   0
   4   2  -3  297.80   33.83   0
   5  -1   9  526.69   50.37   0
   6  -1   9   27.09   55.13   0
   6   3   0  760.26   39.33   0
   7   0  -8   67.55   51.18   0
   7   3   1  835.96   43.87   0
   7   3   2  457.93   43.03   0
   7   3   3  289.93   44.00   0
   9  -2   8   75.42   58.69   0
   9   0   7    2.43   59.78   0
   9   2  -2  -67.58   55.04   0
   9   2   4  125.18   60.56   0
  10  -3 -10   75.36   51.04   0
  10   1  -3   -2.60   63.88   0
  12  -1  -2  -41.64   52.05   0
  12  -1  -1   37.79   57.90   0
  12  -1   0  116.34   60.77   0
  12  -1   1 -101.62   58.65   0
   4   0   8  100.59   40.87   0
   6   3   1  194.08   38.78   0
   6   3   2  415.48   40.79   0
   8  -1  -9   14.40   54.42   0
   8   2  -3  -20.26   49.00   0
   9  -3   8   21.82   59.22   0
  10  -3   7  137.09   61.88   0
  10   1   4   89.47   59.76   0
  11  -2  -7   78.89   56.69   0
  11   0  -3   66.64   58.96   0
  11   0   3   79.82   62.87   0
  12  -3  -6   63.00   50.91   0
   3   0  -7  278.99   39.51   0
   3   2  -1   11.93   27.43   0
   4   2   5  451.17   32.76   0
   5   0  -8   10.38   39.17   0
   5   1  -6  267.28   38.68   0
   6   0  -8  102.26   45.35   0
   7   0   8  148.06   60.66   0
   7   1  -6   61.93   42.40   0
   8   2   5  132.28   53.90   0
   9   2  -1  202.35   55.22   0
   9   2   3   36.91   53.09   0
  10  -1  -7  140.49   53.57   0
  11  -1   4   94.37   59.76   0
  11   0  -2  228.67   67.48   0
  12  -2   2   24.49   54.67   0
   3   2   3 1126.23   30.44   0
   4  -2   9  296.28   48.58   0
   6   1  -6   59.20   42.33   0
   9  -1  -8  257.50   55.07   0
   9   2   0  124.69   51.02   0
   9   2   1  149.09   52.71   0
   9   2   2   72.91   51.15   0
  10   0   5   32.10   58.47   0
  10   1  -2   -7.60   61.69   0
  10   1   3  148.78   60.40   0
  11  -3  -8   -9.58   54.02   0
  11   0   2   57.48   63.48   0
  12  -2  -3  136.78   57.17   0
  12  -2   1   34.87   57.66   0
   3  -1   8  360.28   42.88   0
   7  -3   9   97.41   58.02   0
   7   2  -3  114.49   44.27   0
   8   0  -7  207.57   54.93   0
   8   2  -2  268.31   52.16   0
   9  -1   7   36.74   62.18   0
   9   1   5    2.62   62.04   0
  10   1  -1  212.70   61.13   0
  11  -4  -9   44.24   47.84   0
  11  -3   5  -47.32   60.91   0
  11   0  -1   93.76   64.45   0
  11   0   0  -36.83   63.78   0
  11   0   1   38.90   60.54   0
  12  -3   2  -17.34   58.35   0
  12  -2  -2  -37.06   54.11   0
  12  -2   0  -44.66   59.28   0
   2   1  -3 2823.07   39.86   0
   5   0   8  624.26   44.39   0
   5   1   7  451.64   42.14   0
   5   2  -3 1824.19   37.97   0
   6  -2   9   53.33   54.13   0
   6   0   8  186.23   46.89   0
   7   2   5  212.56   46.82   0
   8  -2 -10   20.87   53.63   0
   8   0   7  414.81   57.94   0
   8   2   4  106.90   49.39   0
   9   0  -6   -5.71   56.38   0
  10  -2  -8   60.71   55.22   0
  10  -2   6  100.84   61.57   0
  11  -4   5   51.57   53.63   0
  11  -2  -6    4.38   56.94   0
  11  -1   3  -67.91   63.89   0
  12  -2  -1   23.35   55.58   0
   1  -1   6   17.99   43.91   0
   3   2   0 2029.06   31.53   0
   3   2   2 1732.73   30.02   0
   4   2  -2  829.56   31.45   0
   5  -2   9    8.42   52.39   0
   5   2   5  793.29   40.56   0
   6   2  -3  154.26   38.98   0
   7  -1  -9   41.91   51.94   0
   8  -2   8  -43.19   63.04   0
   8   2  -1  223.75   47.22   0
   9  -2  -9   34.09   55.12   0
  10   0   4  -27.16   61.38   0
  12  -3  -4   -2.61   54.27   0
  12  -3   1  128.40   53.82   0
   3   0   7   55.78   37.52   0
   3   2   1   26.67   26.00   0
   6   2   5  104.20   42.14   0
   8   2   3   73.50   49.93   0
   9  -2   7  -51.68   57.62   0
   9   1  -3  105.77   55.93   0
   9   1   4  -14.32   58.06   0
  10  -3  -9   40.02   53.45   0
  10  -3   6  -40.85   64.47   0
  10  -1  -6   56.19   56.88   0
  11  -1   2   97.66   64.72   0
  12  -3  -3   99.72   57.36   0
   2   0   6   15.28   34.51   0
   2   1   4 4011.36   40.62   0
   4   1  -5  162.64   37.47   0
   6  -3   9  229.21   56.22   0
   7  -1   8   43.16   56.12   0
   7   2  -2   13.99   39.94   0
   7   2   4  152.61   44.98   0
   8   2   0  -16.47   45.81   0
   8   2   1  259.63   47.90   0
   9  -3 -10  -81.88   54.37   0
  10  -4 -10   71.64   53.56   0
  10   0  -3  220.35   63.93   0
  11  -3  -7  154.83   55.21   0
  12  -4   1    7.11   53.97   0
  12  -3  -2  -50.60   49.76   0
  12  -3  -1  160.12   53.39   0
  12  -3   0   28.28   53.39   0
   4  -1  -9  236.09   44.69   0
   7   0  -7   41.56   50.76   0
   8  -3   8    7.82   57.52   0
   8  -1  -8   32.10   51.26   0
   8   1   5   65.17   55.57   0
   9  -3   7   -1.89   59.61   0
   9  -1  -7   18.18   59.16   0
   9   1  -2  401.61   56.12   0
   9   1   3  209.00   59.40   0
  10  -5   6   71.00   58.38   0
  10  -4   6   20.29   58.94   0
  10   0   3   21.53   57.81   0
  11  -4  -8   56.87   51.86   0
  11  -2   3   50.03   56.48   0
  11  -1  -2  116.56   61.88   0
  11  -1   0   89.18   60.74   0
  11  -1   1   56.42   61.09   0
   5   2  -2  244.56   35.62   0
   6  -1  -9  384.53   51.14   0
   6   2  -2 1077.57   38.70   0
   7   0   7   -5.22   53.73   0
   7   2  -1   70.35   39.35   0
   7   2   3  112.86   48.56   0
   8  -4   8    5.21   57.47   0
   8  -1   7  129.41   60.40   0
   9  -5   7  142.07   59.21   0
   9  -4   7   22.63   61.53   0
   9   0   5  -49.95   58.98   0
  10  -2  -7  -16.49   54.94   0
  10   0  -2   74.81   62.93   0
  10   0   2   92.99   61.29   0
  11  -5  -9   47.63   46.16   0
  11  -5   4  -23.43   53.68   0
  12  -4  -4   21.39   47.85   0
  12  -4   0    8.67   48.03   0
   2  -1   7   15.51   39.91   0
   4   2  -1  819.46   31.44   0
   5  -1  -9   28.91   45.42   0
   5   2   4 1492.04   39.55   0
   6  -1   8  368.53   53.71   0
   7  -2 -10  114.44   50.31   0
   8   0  -6  -26.18   49.28   0
   9   1  -1  -37.11   56.04   0
   9   1   2  224.57   50.86   0
  10  -1   4   54.73   58.20   0
  11  -3   3   47.46   62.05   0
  11  -2  -4   41.84   56.51   0
  11  -2   2   87.69   60.03   0
  12  -4  -3   98.58   49.41   0
  12  -4  -2   99.08   50.20   0
  12  -4  -1   -7.42   52.20   0
   4  -1   8  341.53   41.00   0
   4   0  -7  503.30   38.54   0
   6   0  -7   94.29   42.86   0
   7  -2   8  102.65   55.87   0
   7   2   0  353.12   41.79   0
   7   2   1   50.52   41.81   0
   7   2   2  705.95   44.27   0
   8   1  -3  252.08   50.34   0
   9   1   0  116.38   51.94   0
  10  -3  -8  183.69   58.98   0
  10   0   0   87.22   60.00   0
   4   2   0  991.38   32.07   0
   5  -1   8   74.40   45.35   0
   5   2  -1 1934.28   39.37   0
   6   0   7  295.49   47.34   0
   6   2  -1  609.86   37.71   0
   9  -2  -8   55.91   51.82   0
   9  -2   6   -9.43   61.75   0
   9   0   4   88.11   59.96   0
  10  -1  -4 -111.82   62.30   0
  11  -4  -7  -16.98   54.81   0
  11  -2  -3   70.38   57.73   0
  11  -2   1    4.40   59.71   0
   3  -2 -10  334.52   47.98   0
   4   0   7  900.34   40.94   0
   4   2   1  335.98   31.03   0
   4   2   2   55.05   30.46   0
   5   0  -7  194.10   39.53   0
   5   2   3  129.67   35.28   0
   6   2   0  127.87   40.53   0
   7  -3 -11  103.98   52.06   0
   8  -2  -9   62.28   53.55   0
  10  -4  -9   48.62   56.70   0
  10  -4   5  105.79   64.58   0
  10  -1   3  153.55   57.45   0
  11  -5  -8  104.08   48.39   0
  11  -3   2   16.77   57.28   0
  11  -2  -2  163.66   60.30   0
  11  -2  -1  -37.29   59.87   0
  11  -2   0  196.49   58.69   0
   5   0   7   57.02   42.81   0
   5   2   0  568.47   36.45   0
   6  -2 -10  107.62   50.88   0
   6   2   1  629.62   38.90   0
   6   2   2   48.31   38.78   0
   7  -3   8  231.22   59.56   0
   7  -1  -8  238.94   51.33   0
   8   1  -2  104.49   45.07   0
  10  -6   5  -23.33   52.12   0
  10  -5 -10   62.20   51.83   0
  10  -5   5   76.91   60.48   0
   2   1  -2  143.66   26.04   0
   5   2   1   36.72   34.01   0
   5   2   2  495.88   35.31   0
   7  -1   7  151.09   53.17   0
   8  -3 -10   93.69   53.95   0
   8  -1  -7  187.02   54.90   0
   9  -3  -9    0.08   57.08   0
   9   0  -3  101.18   57.11   0
   9   0   3  358.35   57.18   0
  10  -1  -3 -130.68   60.67   0
  10  -1   2   10.36   57.07   0
  11  -4   2  -72.37   59.00   0
  11  -3   1  104.32   60.90   0
   2   1   3    4.82   25.47   0
   6  -2   8  168.74   52.73   0
   6   1   5  128.08   43.16   0
   7  -4   8  117.75   59.10   0
   7   1  -3   94.52   42.86   0
   8  -3   7   92.34   56.80   0
   8   1  -1  419.00   45.22   0
   9  -4 -10   21.06   53.24   0
  10  -3  -7   -0.72   57.61   0
  10  -1  -2  150.55   57.67   0
  11  -3  -3   19.65   57.93   0
   3  -2   8   29.68   44.15   0
   7   1   4   36.07   42.95   0
   8  -4 -11  -61.61   56.80   0
   8   1   0   86.55   46.27   0
   8   1   1  274.07   47.08   0
   9  -5 -11  -15.12   50.69   0
   9  -5   6  -57.81   60.42   0
   9  -2  -7  203.70   60.76   0
   9   0  -2  219.96   57.26   0
  10  -2   3  332.34   58.51   0
  10  -1   0    2.70   58.80   0
  11  -5  -7   54.01   50.25   0
  11  -3  -2  161.12   57.28   0
  11  -3  -1   -9.65   57.12   0
  11  -3   0  116.27   57.36   0
   5  -2 -10  433.69   46.45   0
   8  -6   7   15.24   55.68   0
   8  -4   7   35.29   59.14   0
   9  -1   4  209.06   57.08   0
   9   0  -1   88.16   56.09   0
   9   0   0    2.86   53.14   0
   9   0   1  394.42   51.30   0
  10  -4  -8   11.75   57.05   0
  11  -4   1   89.85   53.29   0
   3   0  -6 1236.83   38.49   0
   4  -2 -10   25.42   44.56   0
   5  -2   8  125.34   46.88   0
   6  -3 -11  125.00   50.19   0
   6   0  -6   73.33   40.43   0
   7  -2  -9  114.05   49.75   0
   7   1  -2  565.71   41.65   0
   8  -5   7   72.32   55.45   0
   8   0  -4 -103.64   46.22   0
   8   0   4  256.49   49.59   0
  10  -6 -10  -25.16   51.89   0
  10  -5  -9   29.47   56.55   0
  10  -5   4  -61.65   63.58   0
  10  -2  -4   88.90   60.85   0
  10  -2   2   41.13   61.87   0
  11  -4  -4  -51.19   55.84   0
  11  -4   0  -41.85   58.96   0
   3   0   6  607.70   37.34   0
   3   1  -3  174.34   29.60   0
   4  -2   8  165.83   44.80   0
   6  -3   8   -9.46   56.57   0
   6  -1   7  -15.72   45.39   0
   7  -2   7  258.40   57.23   0
   7   1   3  603.54   44.35   0
   8  -2  -8  167.25   54.69   0
   8  -2   6  239.84   53.77   0
  10  -6   4  156.94   54.87   0
  10  -3   3  -10.00   59.24   0
  11  -5   1   65.79   56.41   0
  11  -4  -3  113.85   55.08   0
  11  -4  -1   45.91   59.96   0
   3  -1  -8  309.57   40.25   0
   6   1   4  316.01   41.52   0
   7   0   5  158.47   49.04   0
   7   1  -1   94.79   43.49   0
   7   1   2  353.54   44.02   0
   9  -3  -8  100.75   55.01   0
   9  -1  -4    8.21   57.94   0
  10  -2  -3   42.00   57.60   0
  10  -2   1  126.61   57.65   0
  11  -6   1  -44.44   52.25   0
  11  -4  -2  -42.15   54.26   0
   2   1  -1 3555.44   38.77   0
   2   1   2 3041.46   37.56   0
   3  -1   7  285.90   39.26   0
   7  -1  -7   10.12   46.86   0
   7   1   0  470.28   41.55   0
   7   1   1   83.84   41.58   0
   8   0  -3  653.91   48.98   0
   8   0   3   40.05   45.01   0
   9  -2   4   26.09   59.55   0
  10  -4  -7  -97.52   59.36   0
  10  -2  -2  -18.45   56.30   0
  10  -2  -1  207.31   60.81   0
  11  -5  -5   38.57   52.43   0
  11  -5   0  145.26   52.39   0
   4   0  -6   32.29   35.68   0
   5  -1  -8  367.66   39.96   0
   5  -1   7  395.64   43.72   0
   5   0  -6  113.48   35.00   0
   5   1  -3  210.01   34.45   0
   5   1   4    6.19   40.28   0
   6  -4   8  185.89   55.84   0
   7  -3 -10  -49.53   54.10   0
   8  -3  -9  -37.86   51.68   0
   9  -7   5  -69.93   58.72   0
   9  -4  -9   98.18   55.51   0
   9  -4   5   71.15   58.41   0
   9  -1  -3  102.95   56.88   0
   9  -1   2  204.75   56.70   0
  10  -3   2  289.33   60.15   0
  11  -6   0   98.00   53.80   0
  11  -5  -4   28.83   50.02   0
  11  -5  -1  -29.84   56.25   0
   2   0  -5 2098.29   42.22   0
   4  -1  -8   76.12   37.14   0
   4   1  -3 1096.11   33.07   0
   4   1   4  852.01   35.42   0
   5  -3 -11  175.97   50.20   0
   6   1  -2   26.13   36.74   0
   6   1   3   17.51   41.03   0
   8   0  -2  262.98   44.86   0
   8   0   2  771.13   46.44   0
   9  -6 -11   62.57   53.58   0
   9  -6   5   34.41   60.89   0
   9  -5 -10  107.42   54.38   0
   9  -5   5   29.38   59.52   0
  10  -7 -10    7.44   48.16   0
  10  -7   3   63.25   52.95   0
  10  -6  -9  134.63   53.59   0
  10  -5  -8   -8.17   55.50   0
  11  -5  -3  -70.68   52.30   0
  11  -5  -2   52.22   56.53   0
   2   1   0  159.85   25.70   0
   2   1   1  434.83   26.86   0
   4  -1   7  210.58   41.73   0
   5  -3   8  266.83   51.76   0
   7   0  -4  361.57   44.03   0
   8  -1   4   56.85   52.80   0
   8   0  -1   96.99   45.07   0
   9  -1  -2  -47.44   56.26   0
   9  -1  -1  128.47   58.63   0
   9  -1   0   87.71   52.37   0
  10  -3  -4  -21.41   57.48   0
  10  -3   1   11.25   59.85   0
  11  -6  -5   37.72   52.79   0
  11  -6  -1   75.05   49.54   0
   3   1   3 3400.63   37.54   0
   6  -2  -9  226.16   45.55   0
   6  -2   7   21.07   51.22   0
   6   1  -1  459.83   37.45   0
   6   1   2  295.59   39.36   0
   7  -4 -11  242.34   53.04   0
   7  -4   7   14.73   58.10   0
   8  -7   6 -140.42   57.95   0
   8  -4 -10    2.77   56.34   0
   8  -4   6   37.89   54.36   0
   8  -2  -7    3.26   51.85   0
   8   0   0  305.55   45.77   0
   9  -3  -7  132.08   58.27   0
   9  -2   3  156.05   54.77   0
  10  -4   2   94.66   57.28   0
  10  -3  -3   35.36   62.35   0
  10  -3   0   92.19   60.70   0
  11  -6  -4  -30.85   50.28   0
  11  -6  -3   17.31   51.35   0
  11  -6  -2  122.46   53.01   0
   3   1  -2 5151.11   41.38   0
   5   1  -2  695.08   35.83   0
   6   1   0  120.87   37.00   0
   6   1   1  415.67   39.58   0
   7  -6   7  -52.99   56.39   0
   7  -5   7   50.01   57.57   0
   7  -2   6  119.24   52.34   0
   8  -6 -12  112.78   51.55   0
   8  -6   6   71.23   56.27   0
   8  -5 -11  153.84   54.00   0
   8  -5   6  135.54   57.82   0
  10  -3  -2   18.55   57.59   0
  10  -3  -1   27.63   57.37   0
  11  -7  -5  119.44   47.43   0
  11  -7  -2   42.08   47.68   0
   3  -3   8  713.47   46.02   0
   4  -3 -11   38.75   45.71   0
   4  -3   8  108.36   44.79   0
   5  -4   8   95.29   53.25   0
   7  -5 -12   68.37   52.48   0
   7  -2  -8  175.29   51.51   0
   9  -4  -8  119.99   58.07   0
   9  -2  -4  145.21   59.67   0
   9  -2   2  126.91   58.70   0
  10  -5   2  -47.17   57.99   0
  10  -4  -5   37.15   56.58   0
  10  -4   1   60.28   62.73   0
  11  -7  -4   -0.50   46.88   0
  11  -7  -3  -25.27   49.98   0
   4   1  -2   88.89   29.77   0
   4   1   3 1167.80   33.91   0
   7   0  -3   49.21   39.77   0
   8  -1  -4  289.43   47.64   0
   8  -1   3   70.22   46.62   0
   9  -8 -12  -60.05   46.35   0
   9  -8   4 -151.42   52.42   0
   9  -3   3  369.00   59.01   0
  10  -7  -9   16.83   47.64   0
  10  -6  -8   38.49   55.01   0
   5  -5   8  -39.66   54.41   0
   5   1  -1  373.95   33.45   0
   6  -3   7  126.53   53.64   0
   8  -3  -8  147.86   57.85   0
   8  -2   4  180.51   55.10   0
   9  -7 -11   85.86   53.91   0
   9  -7   4   18.58   57.39   0
   9  -6   4  -46.74   60.39   0
   9  -5  -9   93.45   55.45   0
   9  -2  -3   66.01   59.38   0
   9  -2   1   37.23   55.35   0
  10  -5   1  144.91   59.31   0
  10  -4  -4  -65.54   58.15   0
   3   1  -1  177.72   27.48   0
   3   1   2  269.44   26.48   0
   5  -2   7  106.23   44.09   0
   5   1   0  139.26   32.95   0
   5   1   1   48.74   34.31   0
   6  -3 -10  330.05   49.72   0
   6   0  -4  117.94   36.46   0
   6   0   4  -14.40   39.75   0
   7   0  -2  236.85   40.12   0
   8  -1  -3  -73.67   52.09   0
   8  -1   2   15.50   43.56   0
   9  -6 -10   33.84   55.69   0
   9  -2  -2   83.43   59.05   0
   9  -2   0  371.55   55.27   0
  10  -4  -2  200.55   61.12   0
  10  -4  -1  -27.84   57.46   0
   2  -2   7   38.55   40.85   0
   4   1  -1 1052.86   31.13   0
   4   1   2  829.04   32.32   0
   5  -2  -9  169.80   39.25   0
   5  -1   6  325.61   41.37   0
   7  -3  -9  247.94   51.69   0
   7   0  -1  451.51   45.25   0
   7   0   1  304.47   41.09   0
   8  -4   5  132.11   56.69   0
   9  -4   3  -49.62   56.77   0
   9  -3   2  204.82   56.66   0
   9  -2  -1  -56.12   55.34   0
  10  -8  -9    9.68   45.94   0
  10  -6   1  -21.61   56.43   0
   2  -1   6 1242.01   41.08   0
   3   1   0 3195.13   34.05   0
   3   1   1 1132.69   29.45   0
   4  -4   8  168.33   49.57   0
   5  -1  -7   28.90   37.34   0
   7  -1   4  290.31   44.53   0
   7   0   0  105.88   41.50   0
   8  -4  -9  178.78   55.75   0
   8  -1  -2  292.32   44.12   0
   9  -3  -5 -122.33   57.18   0
  10  -5  -5   71.98   53.21   0
  10  -5   0 -161.80   58.90   0
   4   1   0  160.14   29.59   0
   4   1   1  680.45   30.46   0
   6  -2   6  244.62   46.58   0
   7  -4   6  125.07   56.99   0
   7  -2  -7  385.22   47.96   0
   8  -7   5   36.26   57.07   0
   8  -5   5   99.94   54.62   0
   8  -2   3   98.10   51.26   0
   8  -1  -1   72.43   44.01   0
   8  -1   0   62.46   44.64   0
  10  -6   0 -119.60   56.11   0
  10  -5  -4  177.41   57.49   0
  10  -5  -1   18.29   58.00   0
   2  -2  -9   20.07   44.78   0
   3  -4   8   86.69   46.15   0
   4  -2   7  104.36   40.66   0
   6  -4 -11   24.53   48.85   0
   6  -2  -8  179.36   44.19   0
   6   0   3  764.95   40.53   0
   7  -4 -10  148.86   51.97   0
   8  -7 -12  167.78   52.46   0
   8  -6 -11   82.50   54.92   0
   8  -6   5   61.20   52.95   0
   8  -5 -10   26.71   55.08   0
   9  -8 -11   33.33   51.13   0
   9  -8   3   39.64   54.45   0
   9  -7   3  -71.01   62.14   0
   9  -5  -8   37.83   56.29   0
   9  -3  -4   76.06   55.27   0
   9  -3   1    1.45   55.30   0
  10  -8   0   78.84   54.73   0
  10  -7   0   -3.31   56.19   0
  10  -6  -6   70.51   56.31   0
  10  -5  -3   23.65   57.18   0
  10  -5  -2   17.81   57.35   0
   3  -2   7  753.92   39.76   0
   4  -2  -9  633.07   40.18   0
   4  -1   6  360.13   37.41   0
   5   0   4 1009.51   38.01   0
   6  -6   7   57.30   56.82   0
   6  -5   7  100.29   55.65   0
   7  -7   6  124.52   55.63   0
   7  -5   6   14.04   54.04   0
   9  -7 -10   10.27   55.41   0
   9  -6  -9   47.76   52.92   0
   9  -4   2  -75.62   55.64   0
   9  -3   0  110.62   54.69   0
  10  -6  -5    7.56   54.13   0
  10  -6  -1  309.82   55.60   0
   3  -1   6   56.32   37.22   0
   5  -3   7  -22.36   45.51   0
   5   0  -4 1038.77   34.23   0
   6  -5 -12  -32.42   51.42   0
   6   0   2  156.71   40.82   0
   7  -6   6  118.21   57.01   0
   7  -5 -11  -46.85   53.47   0
   7  -1  -4  145.81   43.20   0
   8  -2   2   44.49   46.31   0
   9  -3  -2  285.78   55.14   0
   9  -3  -1  169.34   54.81   0
  10  -7  -1    3.95   54.68   0
  10  -6  -4  172.89   57.72   0
  10  -6  -3   72.17   57.79   0
  10  -6  -2   54.02   54.79   0
   7  -6 -12  138.85   52.81   0
   8  -9   4   76.33   56.17   0
   8  -2  -4  243.33   48.50   0
   9  -9   2   64.82   52.02   0
   9  -5   2  252.05   57.94   0
   9  -4   1  -27.06   56.14   0
  10  -8  -1    8.44   55.45   0
  10  -7  -6   17.44   51.90   0
   1   0   3 1980.27   41.78   0
   5  -3 -10   -9.67   41.97   0
   6   0  -1  301.16   37.41   0
   6   0   1   32.39   37.30   0
   7  -3  -8   28.92   50.43   0
   7  -2   4  -24.87   43.60   0
   8  -4  -8  -20.08   55.39   0
   8  -3   3   82.54   51.66   0
   8  -2   1  185.23   42.63   0
   9  -9 -11  -23.01   47.00   0
   9  -4  -5   87.75   55.15   0
  10  -9  -2  101.64   52.13   0
  10  -8  -2  107.45   52.98   0
  10  -7  -5    4.02   48.44   0
  10  -7  -4   67.65   55.18   0
  10  -7  -3  -17.06   58.14   0
  10  -7  -2  151.66   55.09   0
   3  -1  -7  565.92   35.21   0
   4   0   4 1139.28   36.02   0
   5  -2   6  -32.03   43.03   0
   5   0   3  472.30   39.30   0
   6  -1   4    0.84   36.33   0
   6   0   0  483.75   37.45   0
   7  -1  -3  499.67   39.89   0
   8  -8   4   69.76   56.74   0
   8  -2  -3  283.38   46.40   0
   9  -4   0  -70.79   56.03   0
  10  -9  -7  -26.25   44.33   0
  10  -8  -6   31.29   53.09   0
  10  -8  -3   -4.33   56.61   0
   4   0  -4   14.56   31.25   0
   5   0  -3  159.99   33.10   0
   6  -3  -9  -26.39   47.60   0
   7  -9   5   79.74   53.62   0
   7  -1  -2  -54.71   43.15   0
   7  -1   1  391.26   40.52   0
   8  -8 -12   -2.95   54.25   0
   8  -7   4    5.68   54.62   0
   8  -6   4   59.97   55.45   0
   8  -5  -9  118.46   53.96   0
   8  -2  -2  209.89   42.73   0
   8  -2  -1  186.13   42.82   0
   8  -2   0  -41.27   42.52   0
   9  -8 -10   31.36   50.24   0
   9  -7  -9  141.21   51.24   0
   9  -5   1   58.99   55.58   0
   9  -4  -4  -50.79   53.06   0
   9  -4  -1  106.75   57.57   0
  10  -9  -6   25.00   48.19   0
  10  -9  -4   98.66   51.14   0
  10  -9  -3   32.12   46.50   0
  10  -8  -5  -27.07   48.05   0
  10  -8  -4   13.99   53.02   0
   1  -3   7   -0.28   48.15   0
   3   0   4   64.42   32.54   0
   4  -3   7  577.70   41.70   0
   7  -1  -1  406.08   39.84   0
   7  -1   0  239.55   40.02   0
   8 -10   3   -2.45   50.49   0
   8  -7 -11   -7.07   52.80   0
   8  -6 -10  -69.99   52.27   0
   8  -4   3   92.00   56.31   0
   8  -3   2  -78.65   51.03   0
   9  -5  -6  -98.19   52.77   0
   9  -4  -3  168.43   52.66   0
   9  -4  -2   51.26   53.63   0
  10  -9  -5   65.38   44.52   0
   5  -5   7   55.26   54.45   0
   5  -2  -8   65.35   37.69   0
   6  -4   6   37.50   52.23   0
   6  -2  -7   79.47   40.65   0
   7  -8   5  116.45   57.06   0
   7  -4  -9   40.99   52.24   0
   8 -10 -13  -96.18   45.27   0
   8  -3  -5  275.01   51.96   0
   9  -6   1   40.85   56.51   0
   9  -5   0  130.60   56.77   0
   1  -1   5 1492.73   48.14   0
   5  -4 -11  111.76   46.71   0
   5   0  -2   60.18   34.14   0
   5   0   2  108.44   34.20   0
   6  -8   6  108.34   56.27   0
   6  -1   3  699.52   36.40   0
   7  -5   5   23.74   54.65   0
   7  -2  -5  272.44   45.39   0
   8  -9   3   80.87   58.86   0
   9  -9 -10  -16.31   45.58   0
   9  -7   1  108.94   54.72   0
   9  -5  -5  234.02   54.14   0
   4   0   3  177.14   34.36   0
   5  -6   7  -40.77   53.35   0
   6  -5   6   95.01   51.22   0
   6  -4 -10  244.47   47.54   0
   7  -7   5  -58.58   53.35   0
   7  -6   5  145.31   52.91   0
   8  -3  -4   -2.78   48.18   0
   8  -3   1    1.75   46.43   0
   9  -6   0  248.22   60.71   0
   9  -5  -4   -5.86   52.49   0
   9  -5  -1 -115.79   55.39   0
   4  -3 -10  249.10   41.47   0
   4  -2   6   -7.76   38.10   0
   5  -1   4 1349.22   38.02   0
   5   0   1  719.94   34.60   0
   6  -6   6  -62.89   56.54   0
   7  -8 -13   56.45   51.12   0
   7  -5 -10  207.55   50.87   0
   7  -2   2  209.49   38.75   0
   8  -9 -12   92.48   50.35   0
   8  -8   3  148.03   56.01   0
   8  -4   2   56.52   52.60   0
   8  -3   0  223.68   42.26   0
   9 -10 -10  -20.07   44.57   0
   9  -5  -3  119.42   53.42   0
   9  -5  -2   61.84   53.23   0
   3  -3   7  -16.23   37.62   0
   4   0  -3    5.52   27.29   0
   5  -5 -12  237.66   47.34   0
   5  -3   6  227.00   40.75   0
   5   0   0   -1.00   32.75   0
   6  -2   4  339.97   40.51   0
   6  -1   2  -12.19   37.24   0
   7  -6 -11  -30.74   55.52   0
   7  -2  -4  180.14   42.50   0
   8  -3  -3  308.79   46.56   0
   8  -3  -2    6.37   42.01   0
   9  -8   0   84.42   54.62   0
   9  -7   0  -64.25   55.80   0
   9  -6  -1   76.05   59.96   0
   4  -4   7  198.91   43.22   0
   6  -5 -11  267.31   50.16   0
   6  -1  -3   54.53   35.07   0
   7  -3   3  202.00   46.30   0
   7  -2   1   56.76   41.43   0
   8 -10   2  128.62   52.44   0
   8  -8 -11   75.73   51.18   0
   8  -7 -10  160.24   51.90   0
   8  -6  -9  107.32   53.16   0
   9 -10  -1  -68.88   53.54   0
   9  -6  -5   13.51   55.51   0
   9  -6  -2  -17.64   57.82   0
   2  -3   7   94.17   41.15   0
   3   0   3  199.90   29.81   0
   4   0   2 2945.23   38.33   0
   6  -7 -13   -4.37   51.10   0
   6  -6 -12   11.77   51.20   0
   6  -3  -8  373.15   41.30   0
   7  -9   4 -142.98   56.24   0
   7  -4  -8  221.87   50.46   0
   7  -2  -3  287.79   39.39   0
   8  -5   2  133.31   53.99   0
   8  -4   1  125.79   51.31   0
   9  -9  -1   49.53   55.35   0
   9  -8  -1  -43.23   55.97   0
   9  -7  -1  211.58   58.49   0
   9  -6  -4   11.58   56.11   0
   9  -6  -3  -60.35   55.33   0
   2   0   3  510.70   29.97   0
   4  -2  -8  395.78   36.04   0
   5  -3  -9  385.10   39.58   0
   6  -1  -2 1271.70   38.63   0
   7 -11   3  -43.50   51.74   0
   7  -2  -2  237.78   38.88   0
   7  -2   0  251.91   38.33   0
   8 -11   1  -13.65   50.27   0
   8 -10 -12  -34.95   45.39   0
   8  -9   2  102.90   57.25   0
   8  -4  -5  336.95   51.57   0
   9  -8  -7   29.38   54.97   0
   9  -7  -2  109.41   60.31   0
   1  -2   6  164.85   43.69   0
   2  -1   5 1150.20   36.39   0
   3  -2   6  168.48   36.38   0
   3   0  -3   92.36   28.57   0
   4  -5   7  -38.94   50.33   0
   4   0  -2  877.40   29.22   0
   5  -4   6  263.38   47.90   0
   6  -4   5  246.92   45.75   0
   6  -1  -1    2.23   36.40   0
   6  -1   0  836.09   36.19   0
   7  -8   4   16.05   52.25   0
   7  -6   4   55.06   54.32   0
   7  -2  -1   27.86   37.56   0
   8  -4  -4  163.54   52.20   0
   8  -4   0  236.56   50.29   0
   9 -10  -2   26.14   54.09   0
   9  -9  -2   66.34   53.22   0
   9  -8  -2   67.22   58.50   0
   9  -7  -5  -14.35   55.60   0
   9  -7  -4   41.34   59.59   0
   9  -7  -3   43.44   55.09   0
   4   0   1  295.95   30.23   0
   5  -1   3   30.15   33.64   0
   6  -9   5  -18.17   53.17   0
   6  -2   3   86.92   35.55   0
   7  -9 -13    6.27   48.07   0
   7  -7   4  159.23   52.85   0
   7  -5  -9  127.01   53.74   0
   7  -4   3    6.56   48.83   0
   7  -3   2   15.67   39.21   0
   8  -5   1  211.78   52.79   0
   8  -4  -3   72.40   51.67   0
   8  -4  -1   -9.85   46.02   0
   9 -10  -3   54.02   51.28   0
   9  -9  -7   20.47   51.81   0
   9  -8  -6   -3.31   50.55   0
   9  -8  -3  194.31   57.24   0
   3  -3 -10  202.84   39.45   0
   4  -6   7  149.40   51.00   0
   4  -4 -11   52.52   41.28   0
   4  -1   4  165.16   31.78   0
   4   0  -1  296.02   28.49   0
   4   0   0 2701.70   34.37   0
   5  -1  -4   23.27   32.78   0
   6  -5   5   67.64   50.68   0
   6  -4  -9  296.43   50.67   0
   6  -2  -5  208.56   37.08   0
   7  -8 -12   92.48   52.60   0
   7  -3  -5  -24.84   45.73   0
   8 -10   1  -19.10   56.67   0
   8  -8 -10  148.28   49.46   0
   8  -7  -9   18.34   52.47   0
   8  -5  -6  209.07   52.48   0
   9 -11  -4  -74.93   45.04   0
   9 -10  -7   57.70   50.51   0
   9  -9  -3   97.03   53.77   0
   9  -8  -5   89.85   53.74   0
   9  -8  -4   -2.08   54.57   0
   2  -2   6 2170.85   41.77   0
   3  -4   7  262.67   42.73   0
   3  -1  -6 1884.43   34.36   0
   4  -3   6  -27.01   37.33   0
   5  -5   6   30.23   50.36   0
   6  -8   5   70.29   55.83   0
   7 -10   3   40.22   55.43   0
   7  -7 -11    0.83   51.56   0
   7  -6 -10  -21.71   51.98   0
   8  -6   1   86.70   54.00   0
   8  -5   0   91.25   51.56   0
   9 -11  -6   27.84   44.31   0
   9 -10  -6   65.50   47.38   0
   9 -10  -5   67.72   51.59   0
   9 -10  -4   21.21   52.27   0
   9  -9  -5   24.92   51.84   0
   9  -9  -4   29.25   53.47   0
   1   0   2   27.41   26.15   0
   3   0   2  517.08   27.44   0
   5  -8   6  -33.65   53.07   0
   5  -4 -10  318.23   43.06   0
   6  -7   5  114.81   52.46   0
   6  -6   5  120.86   53.89   0
   6  -2   2  -61.68   36.91   0
   8 -10 -11  -13.08   46.88   0
   8  -7   1  -75.09   55.26   0
   8  -5  -5  -54.53   50.72   0
   3   0  -2 1556.60   29.76   0
   5  -7   6   42.21   53.07   0
   5  -6   6  150.52   50.99   0
   5  -1   2  413.26   32.82   0
   7 -10 -13   -1.26   51.57   0
   7  -9   3   92.28   54.03   0
   7  -4   2  171.28   47.28   0
   7  -3  -4  533.39   39.86   0
   7  -3   0   32.79   41.05   0
   8 -11 -11   28.17   46.20   0
   8  -9 -10  -43.95   50.30   0
   8  -5  -1   77.70   52.89   0
   3  -2  -8    1.85   32.62   0
   4  -5 -12    4.88   44.30   0
   5  -1  -3  403.38   32.11   0
   6 -12   3   32.52   52.37   0
   6  -5 -10   -6.08   48.07   0
   6  -2  -4   40.33   35.21   0
   7 -11   2   64.02   56.81   0
   7  -8   3   55.64   56.03   0
   7  -3  -3   -3.60   39.03   0
   8  -6   0  419.42   52.36   0
   2   0   2  141.33   26.86   0
   3   0   1 2765.01   32.30   0
   5  -1   1  111.03   32.42   0
   6 -10   4   -1.75   54.33   0
   6  -8 -13   14.80   51.09   0
   6  -6 -11   74.24   49.58   0
   6  -3   3  156.00   38.92   0
   6  -2   1  277.86   35.67   0
   7  -4  -6  426.54   44.02   0
   7  -3  -2  218.05   39.21   0
   7  -3  -1  129.19   38.52   0
   8  -9   0  -60.70   57.75   0
   8  -7   0  203.24   56.41   0
   8  -6  -6  113.55   51.81   0
   2  -1  -6  126.35   30.29   0
   3  -5   7  239.16   44.71   0
   3   0  -1   88.35   23.96   0
   4  -3  -9  133.30   34.83   0
   4  -1   3 1295.50   34.15   0
   5  -5 -11    1.33   44.99   0
   5  -3  -8  140.93   35.92   0
   5  -1  -2  125.44   31.52   0
   6  -7 -12  -49.08   50.78   0
   7 -12   1  135.74   52.41   0
   7  -9 -12   29.95   48.43   0
   7  -6  -9   43.81   50.60   0
   7  -5   2  127.83   50.08   0
   7  -4   1  244.08   42.25   0
   8 -10 -10  -91.34   50.31   0
   8  -8   0  -53.70   55.29   0
   8  -7  -7  159.50   52.79   0
   8  -6  -5  102.20   52.33   0
   8  -6  -1  133.21   51.45   0
   2  -4   7   67.22   42.29   0
   3   0   0  229.95   25.28   0
   4  -4   6   92.17   40.05   0
   4  -2  -7    9.69   32.94   0
   5  -4   5   12.74   41.10   0
   5  -1  -1 1158.64   33.35   0
   6  -4  -8  -18.58   41.62   0
   6  -2  -2  104.16   35.28   0
   6  -2   0   46.74   34.13   0
   7 -10   2  -66.96   57.62   0
   7  -8 -11  140.13   47.44   0
   7  -7 -10  -81.80   51.45   0
   8 -10  -1   77.63   57.25   0
   8  -7  -1  -41.98   54.58   0
   8  -6  -3   -5.41   53.99   0
   8  -6  -2   26.46   52.49   0
   2   0  -2  114.14   24.99   0
   5  -6 -12  104.53   45.95   0
   5  -2   3  182.60   32.45   0
   6  -2  -1 1159.89   35.47   0
   7  -4  -5   22.14   43.33   0
   8  -9  -1   43.07   57.00   0
   8  -8  -1   54.50   59.74   0
   3  -6   7   98.86   48.01   0
   3  -3   6  137.53   36.55   0
   4  -1  -4  441.34   28.14   0
   6 -10 -14   18.79   46.71   0
   6  -6   4  251.22   47.72   0
   6  -3   2  461.14   34.07   0
   7 -12 -13   -6.71   41.27   0
   7 -10 -12  -55.44   51.20   0
   7  -9   2   10.60   55.70   0
   7  -6   2  -40.21   51.72   0
   7  -4   0   23.96   38.53   0
   8 -12  -3  133.53   50.05   0
   8 -11  -2  128.94   53.23   0
   8  -7  -2  171.48   51.87   0
   5  -9   5  118.94   53.33   0
   5  -5   5  298.62   44.53   0
   6  -7   4   48.26   53.21   0
   6  -4   3  302.14   39.77   0
   7 -11   1   40.87   57.10   0
   7  -5   1  -22.78   45.62   0
   7  -4  -4  336.42   39.54   0
   8 -10  -2   55.31   50.58   0
   8  -8  -2  208.47   55.30   0
   8  -7  -5  126.49   49.32   0
   8  -7  -4  -24.58   50.15   0
   8  -7  -3   94.34   51.37   0
   2   0   1  476.38   26.16   0
   4  -5   6  799.77   43.20   0
   4  -3   5  225.55   35.90   0
   4  -1   2  138.09   31.43   0
   5  -2  -5  790.41   32.50   0
   6  -9 -13  181.22   50.29   0
   6  -5  -9  254.47   45.45   0
   6  -3  -5  305.01   36.42   0
   7 -12   0   69.23   52.43   0
   7  -9 -11  165.09   49.51   0
   7  -4  -3  387.60   38.64   0
   7  -4  -2   16.76   39.00   0
   8 -12  -8   24.63   49.23   0
   8 -12  -4   70.01   45.96   0
   8 -11  -3  -28.80   47.35   0
   8 -10  -8  -57.16   50.56   0
   8  -9  -2  129.31   55.83   0
   2   0  -1 2194.38   32.71   0
   5  -8   5   35.84   55.15   0
   5  -6   5  130.44   51.99   0
   5  -2   2  385.70   33.48   0
   6 -12   2   -6.38   54.84   0
   6 -10   3   81.95   55.70   0
   6  -3   1   59.28   34.57   0
   7  -8 -10  153.62   50.09   0
   7  -6   1  190.17   51.80   0
   7  -5  -6  186.48   44.89   0
   8 -12  -7   51.19   44.53   0
   8 -12  -5   74.12   48.22   0
   8 -11  -8  -39.83   46.81   0
   8 -11  -4   85.32   55.18   0
   8 -10  -3  -30.77   53.41   0
   8  -9  -7   88.17   49.72   0
   8  -8  -5 -115.37   53.87   0
   8  -8  -4   80.40   52.54   0
   2   0   0 1523.25   29.72   0
   4  -7   6   75.25   51.22   0
   4  -6   6   63.92   48.33   0
   4  -4 -10  162.34   35.71   0
   5 -11   4    6.10   51.28   0
   5  -7   5   20.12   49.19   0
   6  -8 -12   36.68   51.82   0
   6  -7 -11   16.30   48.77   0
   7  -5   0  187.83   39.82   0
   8 -12  -6  132.19   47.79   0
   8 -11  -7  109.97   44.81   0
   8 -11  -6   14.88   53.30   0
   8 -11  -5  -15.27   52.32   0
   8 -10  -7  -26.40   47.73   0
   8  -9  -6  120.37   53.39   0
   8  -9  -5   57.60   54.06   0
   4  -1  -3  202.01   27.16   0
   5  -2  -4  211.84   34.23   0
   6 -13   1  -43.30   51.00   0
   6  -4   2  346.66   39.68   0
   6  -3  -4  -10.34   33.62   0
   6  -3   0  777.03   35.26   0
   7 -12 -12   62.28   43.25   0
   7 -10 -11   19.22   48.49   0
   7  -7   1  230.57   52.01   0
   7  -6  -7   93.58   50.79   0
   7  -5  -5  262.00   43.34   0
   7  -5  -1  154.99   38.71   0
   3  -1   3  209.29   27.72   0
   4  -1   1  862.03   30.33   0
   5  -9 -14  289.28   48.85   0
   5  -3   3  554.33   33.40   0
   5  -2   1  165.37   33.52   0
   6  -9   3   19.55   50.41   0
   6  -3  -3  214.55   34.69   0
   7  -6   0  191.73   50.57   0
   7  -5  -4   76.89   39.12   0
   7  -5  -2  161.59   38.67   0
   4  -1  -2  235.58   28.00   0
   6 -12 -14   18.03   43.02   0
   6 -11   2   -1.35   57.29   0
   6 -10 -13    5.65   47.56   0
   6  -8   3  137.40   53.62   0
   6  -4  -6  205.55   41.69   0
   6  -3  -2  172.33   34.52   0
   6  -3  -1  208.58   33.43   0
   7 -11 -11  -20.63   49.31   0
   7  -9 -10   -1.58   50.14   0
   7  -5  -3  177.42   37.91   0
   4  -1  -1 1240.61   30.55   0
   4  -1   0  277.54   27.68   0
   5  -2  -3  241.34   31.03   0
   7 -12 -11  -32.13   46.34   0
   7  -6  -6   62.88   46.86   0
   7  -6  -1  123.35   47.32   0
   5  -2  -2  948.86   32.64   0
   5  -2   0  550.06   31.71   0
   6  -5   2  -14.02   40.39   0
  -1  -5  15  160.01   44.26   0
   1  -6  14   13.06   54.25   0
   1  -3   0 2814.37   35.24   0
   2  -7  11   37.71   58.85   0
   3  -7   5   -1.84   49.58   0
   3  -6  14   31.27   56.46   0
   3  -3   0   68.84   32.75   0
   4  -6  13   49.55   56.64   0
   5  -6   5   62.95   58.87   0
   5   0   0   57.01   40.64   0
  10  -1  10  -30.26   57.04   0
  10  -1  11  -31.71   54.29   0
  -3  -5   7  451.29   35.90   0
  -3  -5  10  239.40   44.93   0
  -2  -6  10  101.60   45.23   0
   0  -7   6  119.29   52.63   0
   0  -6   3  668.03   38.81   0
   1  -5  16  -18.61   47.03   0
   2  -7   5  480.89   49.77   0
   3  -7   6  239.42   52.42   0
   3  -7  10  -44.97   62.58   0
   4  -5   2  238.48   43.61   0
   4  -4   1  317.86   40.03   0
   5  -6  11  266.49   61.54   0
   5  -5   3  137.82   49.89   0
   5   1   0  143.79   47.78   0
   6  -5  13  168.30   54.49   0
   8  -2   4  133.46   51.27   0
   9  -2   7   22.55   56.59   0
  -4  -3   7  434.56   37.19   0
  -3  -5   8   50.64   36.49   0
  -3  -5   9  130.94   42.24   0
  -2  -6   8  -62.61   44.47   0
  -2  -6   9  200.78   49.47   0
  -2  -5  13   76.18   47.65   0
  -1  -6  12  -19.80   45.83   0
   0  -6  13  -16.82   50.31   0
   0  -4   1  332.09   28.48   0
   1  -7  10  -30.01   57.72   0
   2  -7  10  107.87   62.78   0
   2  -3   0 4202.09   40.45   0
   3  -7   7    7.50   61.99   0
   3  -7   8  -35.04   61.96   0
   3  -7   9  213.31   62.75   0
   3  -6   3  254.17   47.74   0
   4  -6   4  382.87   49.73   0
   5  -6   6  158.19   62.69   0
   6  -3   2  485.45   44.21   0
   7  -4   5  -34.25   52.69   0
  -3  -4   5  305.78   30.99   0
   1  -7   9  137.05   57.93   0
   2  -7   6   -3.61   48.49   0
   2  -7   9   59.69   59.13   0
   3  -6  13   55.85   53.94   0
   4  -6  12   -9.15   60.72   0
   5  -6  10   16.13   66.01   0
   5  -5  14  -68.70   55.91   0
   7  -4  13   51.40   55.36   0
   8  -3   6   67.03   57.34   0
  -3  -3   4   37.43   30.12   0
   0  -5   2 1368.99   35.62   0
   0  -5  15  -82.68   48.89   0
   1  -7   7   85.07   53.35   0
   1  -7   8   62.72   57.24   0
   2  -7   8  183.04   60.91   0
   2  -6   3   77.48   44.24   0
   2  -6  13 -147.50   61.28   0
   5  -6   7  -11.57   60.30   0
   5  -6   8  179.51   61.26   0
   5  -6   9  -39.23   66.56   0
   6  -1   1  268.78   41.08   0
   7  -1   2  266.73   42.25   0
   9  -2  12   96.87   56.55   0
  -1  -6   5   17.49   36.27   0
  -1  -6  11   32.47   50.97   0
  -1  -5   3  642.02   32.55   0
  -1  -5  14   35.25   45.61   0
  -1  -4  16   71.65   42.77   0
   3  -5   2  707.60   41.99   0
   3  -5  15   23.89   53.61   0
   4  -6   5  172.62   47.45   0
   4  -6  11   75.06   65.18   0
   6  -5  11  -14.76   59.45   0
   7  -4  12  -52.15   63.34   0
   9  -2   9   -8.13   59.39   0
   9  -2  11  -20.22   59.71   0
  -4  -2   6  728.30   39.54   0
  -2  -5  12  -35.05   49.76   0
  -1  -4   2  792.42   27.95   0
   0  -6   4  392.97   40.43   0
   0  -6  12   82.34   51.15   0
   1  -5  15  -70.09   51.48   0
   3  -6   4   82.21   46.46   0
   3  -6  12   82.49   63.25   0
   3  -4   1  494.64   36.35   0
   5  -5   4  204.41   48.32   0
   6  -5  10   -3.38   63.70   0
   8  -3   7   48.15   56.92   0
   8   0   3   79.37   49.60   0
   9  -2  10  164.04   62.07   0
  -3  -4  12  101.41   46.78   0
  -1  -6  10   62.43   49.14   0
   1  -5   2  344.15   36.99   0
   1  -4   1 1618.79   34.04   0
   2  -6  12   65.63   57.14   0
   4  -6   6   66.19   51.57   0
   4  -6  10   -8.80   62.82   0
   4  -5   3  652.39   44.74   0
   4  -5  14  -23.25   55.79   0
   6  -5   8   94.93   60.02   0
   6  -5   9   50.27   63.87   0
   6  -4  14    8.66   52.95   0
   7  -4  11 -109.27   66.67   0
   7  -2   3  189.82   46.65   0
   8  -2   5   20.60   53.99   0
   9   0   5    4.56   53.57   0
  -4  -3   9  103.15   38.77   0
  -4  -3  10  298.28   42.46   0
  -1  -2   1 3711.31   43.63   0
   0  -5  14   -1.55   51.75   0
   1  -2   0  425.74   27.75   0
   2  -6   4  574.43   44.40   0
   2  -4   1 2792.62   39.34   0
   3  -6  11  -35.32   66.06   0
   4  -6   9  162.85   62.40   0
   5  -5  12  149.59   65.06   0
   5  -4  15  -13.50   53.37   0
   8  -3   9  110.75   58.74   0
  -3  -4   6  124.68   32.48   0
  -2  -4  14  -26.88   46.89   0
  -1  -5  13   76.15   45.95   0
   0  -4  16   15.79   47.30   0
   3  -6   5  149.37   47.20   0
   3  -5  14   75.61   57.57   0
   3  -2   0 2441.48   38.63   0
   4  -6   8  -11.14   61.88   0
   5  -5   5  500.14   54.99   0
   7  -3  14  -83.42   57.67   0
   8  -1   4   23.72   50.06   0
  10   0  10   -4.27   55.27   0
  10   0  12   75.54   51.39   0
  -1  -4  15   40.05   46.93   0
   3  -6  10  278.94   60.89   0
   4  -5  13  121.31   60.10   0
   4  -3   1   24.20   33.30   0
   6  -4  13  144.77   58.06   0
   9  -1   7  124.38   57.41   0
  -2  -5  10  -12.30   48.97   0
  -1  -5   4  207.61   34.63   0
   0  -5   3  366.28   36.23   0
   1  -6   5  669.63   45.03   0
   1  -4  16   72.88   48.96   0
   2  -6   5  275.37   45.31   0
   2  -2   0 1699.94   36.34   0
   3  -6   6  103.86   48.88   0
   3  -6   9   -1.28   60.77   0
   3  -5   3  258.78   46.71   0
   5  -5  11   22.06   65.11   0
   6  -2   2  -48.64   39.56   0
   7  -3   5   92.58   49.71   0
   9  -1  13    9.62   56.00   0
  -3  -4   7  655.98   36.48   0
  -2  -5   7  203.73   39.85   0
  -1  -5  12  114.07   50.49   0
   0  -6   7  329.14   48.49   0
   0  -6   8   32.60   47.83   0
   0  -5  13   51.97   51.41   0
   0  -3   1  414.19   26.73   0
   1  -6  10  183.20   57.27   0
   2  -6  10  110.10   58.26   0
   3  -6   7   77.25   49.19   0
   3  -6   8   82.17   60.12   0
   3  -5  13  -21.33   62.76   0
   4  -4  15  -55.65   56.33   0
   5  -5   6   -3.65   53.76   0
   5  -5  10  106.74   65.31   0
   5  -4  14   58.61   59.91   0
   6  -4  12  179.53   59.31   0
   6  -3  15   29.52   55.29   0
   6   0   1   37.64   38.17   0
   7  -3  13   10.25   63.04   0
   7   0   2    2.39   40.81   0
   8  -2   6  227.79   55.19   0
  -3  -4  10  112.75   44.85   0
  -2  -5   8  200.18   39.40   0
  -2  -5   9  233.77   45.80   0
  -2  -4  13  191.67   51.78   0
   0  -3  17   40.22   50.32   0
   1  -6   6  704.46   43.99   0
   1  -6   9   20.11   54.62   0
   2  -6   6  131.49   46.71   0
   2  -6   9  153.17   60.86   0
   4  -5  12   61.37   64.27   0
   5  -5   7   67.21   58.27   0
   5  -5   9  226.85   60.70   0
   9  -1   8   -5.18   55.79   0
   9  -1  12  119.59   56.94   0
  -3  -4   8    2.31   35.20   0
  -3  -4   9  549.21   39.62   0
  -2  -3  15   28.63   47.24   0
   0  -4   2   56.84   29.78   0
   0  -4  15   14.87   54.55   0
   1  -6   7   13.30   44.43   0
   1  -6   8  327.08   50.25   0
   1  -5   3   59.32   39.54   0
   2  -6   7  218.43   46.29   0
   2  -6   8  -20.11   54.30   0
   2  -5   3   45.28   41.83   0
   2  -5  13  176.71   55.05   0
   7  -3  12   30.69   65.17   0
   8   1   3   25.32   46.34   0
   9  -1  11  339.48   61.85   0
   9   0   6  238.05   52.02   0
  -3  -3  13  112.35   47.94   0
  -1  -4  14  140.28   49.65   0
  -1  -3  16   29.51   48.66   0
   1  -3  17   83.07   51.47   0
   3  -5  12  196.85   68.73   0
   3  -4  15   34.59   57.99   0
   3  -3   1  157.48   33.31   0
   4  -5   5  166.20   44.61   0
   4  -5  11  136.28   63.94   0
   5  -4   4  380.34   47.65   0
   5  -4  13  -11.42   61.84   0
   7  -2   4   23.80   42.87   0
   8  -2   7   39.30   55.97   0
   9  -1  10   73.18   56.65   0
  -3  -3   5   99.24   30.01   0
  -1  -5   5  493.17   37.22   0
  -1  -4   3  503.39   28.85   0
   4  -4  14   17.04   58.23   0
   6  -4   7   86.45   56.86   0
   6  -4   8  225.12   62.00   0
   6  -3  14   42.22   57.52   0
   7  -3  11   28.29   60.61   0
   7  -1   3   17.80   43.03   0
   9   1   5   37.58   48.82   0
  10   1   9   69.73   50.68   0
  -2  -4  12  107.19   47.17   0
   0  -2  18   30.76   46.51   0
   2  -5  12  -12.42   62.74   0
   4  -5  10   71.57   61.03   0
   4  -3  16   50.02   59.50   0
   8  -2   8   78.76   56.24   0
   8  -2   9  101.59   57.75   0
   8  -2  10  -30.91   59.73   0
  -1  -5  10  292.27   46.10   0
  -1  -3   2 1787.77   32.63   0
   1  -4   2  321.70   33.22   0
   1  -3   1 7570.23   45.69   0
   2  -5   4  153.96   41.72   0
   2  -4   2   45.55   35.56   0
   3  -5  11  -60.11   61.53   0
   4  -5   7  -10.00   46.72   0
   4  -5   8  175.23   57.32   0
   4  -5   9  118.33   60.73   0
   5  -4  12   27.52   64.51   0
   5  -3  15   22.43   60.76   0
   7  -2  14  -65.35   64.42   0
   8   0   4  234.04   47.08   0
   9   0  14  -25.23   52.65   0
  10   1  10  -64.31   50.20   0
  10   1  11   59.51   53.76   0
   0  -4  14   54.34   50.62   0
   1  -5   4  126.25   40.82   0
   2  -3   1  101.51   30.09   0
   3  -5   5  477.82   43.03   0
   3  -4  14   93.20   58.56   0
   3  -1   0 2217.88   38.35   0
   4  -4  13   86.28   67.06   0
   4   0   0 2696.41   45.77   0
   5  -4   5   70.86   45.49   0
   5  -1   1   92.12   35.74   0
   6  -3  13   88.22   59.37   0
   9   0   7   46.11   53.37   0
  -3  -3  12   11.87   44.32   0
  -3  -2   4   63.54   30.67   0
  -1  -4  13   47.84   48.86   0
  -1  -2  17  -66.39   47.15   0
   0  -5   5  410.50   41.81   0
   0  -3  16  -56.83   50.58   0
   1  -5  11   23.52   58.46   0
   1  -2  18   29.05   46.60   0
   2  -5  11  277.17   59.54   0
   2  -4  14  -51.12   60.13   0
   3  -5  10  295.44   61.06   0
   3  -3  16   81.00   59.33   0
   4  -3   2  744.69   38.53   0
   5  -4  11  350.37   64.69   0
   6  -1   2   23.63   36.82   0
   7  -2   5  625.00   48.48   0
   9   0  13   80.71   54.21   0
  -2  -4  11  150.12   45.29   0
  -2  -3  14   61.09   46.54   0
   2  -5   5  128.95   41.28   0
   3  -5   6   16.05   44.82   0
   3  -5   9  -87.10   58.53   0
   6   1   1  368.95   41.54   0
   7  -2  13   66.39   63.20   0
   7   1   2  327.70   41.24   0
   8  -1   6  -38.04   52.55   0
   9   0   8   89.08   55.50   0
  -1  -3  15    3.29   47.82   0
   1  -5  10  394.82   56.14   0
   1  -3  16  114.13   55.19   0
   1  -1   0 1556.33   35.72   0
   2  -5  10  -27.23   59.10   0
   3  -5   8  137.48   47.16   0
   3  -4   3   87.37   38.04   0
   4  -4   4   14.29   39.31   0
   4  -4  12  164.19   63.65   0
   4  -3  15  156.19   55.75   0
   4  -2  17  -70.61   58.00   0
   5  -4  10   12.00   59.25   0
   5  -3  14  209.56   61.69   0
   6  -3  12  116.77   64.67   0
   6  -2  15  184.66   56.33   0
   8   2   3   67.97   45.10   0
   9   0  12   73.49   57.45   0
  -4  -2   8  117.49   36.45   0
  -3  -3   6  454.35   31.92   0
   0  -5   6  374.65   37.72   0
   0  -4   3  995.08   33.98   0
   0  -4  13   -6.87   53.35   0
   2  -5   6  253.90   42.97   0
   2  -5   9  247.12   53.28   0
   3  -4  13  -57.22   63.89   0
   5  -4   7  166.33   52.13   0
   5  -4   9  245.62   59.76   0
   5  -2  16  151.29   56.69   0
   9   0   9   -6.75   54.13   0
   9   0  10  -36.01   55.48   0
   9   1   6   42.24   50.01   0
  -4  -2  10   -3.48   38.05   0
  -3  -3  11  213.65   44.93   0
  -3  -2  14  -33.38   45.33   0
  -2  -4  10  265.07   45.40   0
  -1  -4   4  670.40   31.94   0
  -1  -4  12  122.27   49.86   0
   0  -5   7   90.12   40.14   0
   0  -5   8  152.12   42.82   0
   1  -5   6  106.77   41.87   0
   1  -5   9  251.32   48.74   0
   2  -5   7   97.43   44.90   0
   2  -5   8  328.32   45.34   0
   2  -4  13  300.60   62.03   0
   2  -1   0  516.43   30.86   0
   6  -3  11  -25.01   63.13   0
   7  -2  12  122.57   58.40   0
   7  -1   4  329.57   43.49   0
   7  -1  15   75.59   59.29   0
   8  -1   7  126.28   53.26   0
  10   2   9   44.46   51.49   0
  10   2  13   48.32   53.80   0
  -4  -2   9  267.35   36.88   0
  -2  -4   7  -25.14   34.41   0
  -2  -4   9  -17.13   38.54   0
  -1  -1  18   27.99   43.25   0
   0  -3  15  -47.70   49.57   0
   0  -2  17  -40.61   48.67   0
   1  -5   7  168.11   40.29   0
   1  -5   8   64.56   43.10   0
   2  -4   3  245.33   37.13   0
   3  -3  15  175.20   55.06   0
   4  -4   5  414.10   41.18   0
   4  -4  11  -57.15   60.54   0
   5  -3   4  156.63   39.55   0
   5  -3  13   -0.92   64.63   0
   6  -3  10  151.02   60.06   0
   6  -2  14  184.25   59.12   0
   7  -2  11 -135.07   59.45   0
   7   0   3  401.34   41.34   0
   8  -1   8  103.25   58.13   0
   8   0   5  108.42   47.34   0
  10   2  12   58.13   55.40   0
  -2  -4   8  671.36   37.67   0
  -2  -3  13   -2.85   45.50   0
   3  -4  12  184.97   60.46   0
   3  -3   2  441.42   36.80   0
   4  -3  14  179.44   62.76   0
   6  -3   8  -38.39   55.97   0
   6  -3   9  224.57   58.55   0
   9   1  14  -41.73   53.26   0
  10   2  10   72.77   49.17   0
  10   2  11  -46.51   51.52   0
  -3  -3  10  135.61   39.20   0
  -2  -2  15   58.10   45.51   0
  -1  -4  11  126.47   44.62   0
  -1  -3  14   66.92   45.01   0
  -1  -2  16   13.68   46.73   0
   0  -2   1  651.25   28.11   0
   3  -4   4  454.17   39.45   0
   3  -2   1 1201.90   33.56   0
   4  -4   6   90.95   43.16   0
   4  -4  10  214.30   60.41   0
   4  -2  16  -10.75   54.18   0
   5  -2  15   91.92   62.35   0
   6  -1  16  -13.61   53.79   0
   8   1   4  540.82   45.08   0
   9   1   7   80.05   52.74   0
  -3  -3   8  149.87   35.55   0
  -3  -3   9  210.65   36.44   0
  -1  -4   5  287.19   35.47   0
   0  -3   2 4225.71   37.98   0
   1  -4  12   30.02   58.71   0
   2  -4  12  102.55   58.35   0
   3  -4  11   21.30   58.88   0
   4  -4   9  -36.39   54.98   0
   4  -3   3   78.48   35.47   0
   5  -3  12  -25.42   59.49   0
   5  -1  17   93.58   52.05   0
   6  -2  13   88.67   63.88   0
   7  -1  14   88.21   58.68   0
  -3  -2  13  143.17   44.60   0
   0  -4   4   48.78   36.60   0
   0  -1  18  114.84   46.57   0
   3  -3  14   52.84   62.67   0
   4  -3  13   31.96   64.70   0
   5  -3   5  199.16   42.12   0
   7   0  16    0.81   56.81   0
   9   1  13  -37.21   56.84   0
  -2  -3  12  337.07   44.00   0
   0  -3  14   56.20   53.23   0
   1  -1  18   51.83   48.44   0
   2  -4   4   96.95   38.73   0
   2  -4  11   43.62   60.85   0
   2  -3   2  659.73   33.84   0
   3  -4   5  328.04   40.79   0
   3  -4  10  -40.73   58.62   0
   3  -2  16   78.88   56.76   0
   5  -3  11  301.78   59.23   0
   5   0   1  720.89   37.18   0
   6  -1   3  760.07   38.99   0
   6   0   2  118.01   38.26   0
   7  -1   5  180.75   41.10   0
   7  -1  13  108.87   61.42   0
   7   2   2  671.80   44.49   0
   8   0   6    3.97   50.05   0
   9   1   8  171.47   53.25   0
   9   1  12    7.09   59.35   0
  10   3  14   65.10   51.82   0
  -1  -3   3  182.79   27.86   0
  -1  -3  13  190.34   50.73   0
   0  -2  16    1.76   51.09   0
   1  -4  11  300.77   54.21   0
   1  -3   2  298.15   30.66   0
   2  -3  14  170.91   57.55   0
   5  -3   6  239.87   45.36   0
   5  -3  10   88.84   62.90   0
   5  -2  14    4.60   61.40   0
   6  -2  12  143.59   64.65   0
   6  -1  15  -10.90   59.69   0
   6   0  17    3.21   52.56   0
   6   2   1  646.87   46.21   0
   9   1   9   33.38   53.67   0
   9   1  11   -5.18   55.87   0
   9   2   6   33.46   49.20   0
   9   2  15   85.18   52.51   0
  -2  -1  16   58.12   44.78   0
  -1  -1  17  149.84   47.35   0
   0   0  19   27.86   45.03   0
   1  -2  16 -116.08   55.48   0
   2  -2   1 2857.62   37.64   0
   3  -4   6  119.67   39.91   0
   3  -4   9  190.67   46.72   0
   4  -3  12  143.47   61.69   0
   4  -2   2  236.02   31.97   0
   4  -2  15   44.64   61.02   0
   4  -1  17  -74.95   57.58   0
   5  -1  16  112.52   61.23   0
  10   3   9  -48.81   52.94   0
  -2  -3  11   36.26   46.21   0
  -2  -2  14  147.23   47.22   0
  -1  -2  15   92.57   48.68   0
   0  -4   5 1245.78   37.35   0
   1  -4  10  -45.00   52.14   0
   1  -2   1  333.94   26.92   0
   1   0  19   -8.68   49.01   0
   2  -4   5  381.41   38.71   0
   2  -4  10  354.19   54.10   0
   3  -4   7  247.86   43.69   0
   3  -3  13  150.69   62.21   0
   5  -3   7  -15.69   44.50   0
   5  -3   8  238.29   49.81   0
   5  -3   9   31.78   56.46   0
   6  -2  11  110.48   60.43   0
   7  -1   6   27.57   48.99   0
   7  -1  12  -79.30   57.65   0
   7   0  15    7.03   60.03   0
   8   0   7  392.09   53.45   0
  10   3  12    7.87   54.96   0
  -3  -2  12   87.18   41.96   0
   0  -4   9   37.24   43.84   0
   1  -4   5   43.57   37.46   0
   2  -4   9  -72.54   44.96   0
   2   0  19  150.59   49.58   0
   3  -3   3 1148.52   36.11   0
   3  -1  17   21.88   59.10   0
   4   1   0  190.75   43.65   0
   5  -2  13  -16.36   63.69   0
   6  -1  14 -141.42   66.86   0
   7   0   4  291.70   40.01   0
   8   1   5  -18.89   45.79   0
   9   2  14  -29.43   58.06   0
  10   3  10  -39.17   51.51   0
  10   3  11   15.86   50.09   0
  -3  -2   5  161.31   29.09   0
  -1  -3  12   37.92   48.52   0
  -1   0  18  -89.71   45.78   0
   0  -4   6   11.12   38.18   0
   0  -1  17  -31.11   50.80   0
   1  -4   9  638.14   48.62   0
   2  -4   6  904.85   40.59   0
   2  -4   8  424.29   44.37   0
   2  -3  13  -69.86   58.89   0
   4  -3  11   79.96   60.67   0
   4  -2  14  236.74   68.65   0
   4   0  18   98.90   58.88   0
   6  -2   7    2.57   49.92   0
   6  -2  10   28.32   57.06   0
   8   0   8  100.25   53.50   0
   8   0   9  152.48   55.73   0
   8   0  10  156.85   56.69   0
  -3  -1  14  222.51   44.91   0
  -2  -3  10  144.24   40.11   0
   0  -4   8   58.82   38.63   0
   0  -2  15   57.85   51.02   0
   1  -4   6  625.20   38.67   0
   1  -4   8   87.64   41.39   0
   1  -1  17  117.24   54.84   0
   2  -4   7   27.83   40.96   0
   3  -3  12   57.21   59.35   0
   4  -3   5  255.51   40.61   0
   5  -2   4  256.38   36.88   0
   6  -2   8  140.92   51.88   0
   6   0  16  -12.84   58.41   0
   7   0  14   95.92   61.72   0
   7   1   3  576.51   38.71   0
   8   2   4   38.36   42.73   0
   9   2   7  190.36   49.63   0
  -4  -1  11  445.84   41.49   0
  -2   0  17   77.64   43.04   0
   1  -4   7  325.50   38.72   0
   2  -2  15   21.81   54.55   0
   4  -3  10  -30.83   55.48   0
   4  -1  16   61.23   57.75   0
   5  -2  12   27.15   60.59   0
   5  -1  15   11.56   61.01   0
   5   0  17   20.27   59.38   0
   9   2  13   34.96   59.29   0
  -3  -2  11   74.47   40.43   0
  -2  -2  13  -43.48   42.51   0
  -1  -2  14   49.57   49.21   0
  -1  -1  16   13.28   47.76   0
   0  -3   3 1379.88   32.66   0
   2  -3   3    8.97   32.80   0
   2  -3  12  129.87   57.22   0
   4  -3   6  -13.30   39.08   0
   4  -3   9  229.49   46.27   0
   6  -1  13    9.69   64.23   0
   7   1  16   -9.98   60.18   0
  10   4  14  -24.89   53.76   0
  -2  -3   9  146.02   34.84   0
  -2  -1  15   97.73   46.28   0
  -1  -3   4  769.78   31.35   0
  -1  -3  11  224.53   43.28   0
   0   0  18   18.70   48.43   0
   1  -3  12   78.67   57.47   0
   3  -3  11    6.16   58.65   0
   3  -2  14  104.23   62.72   0
   3   0  18  -39.17   53.79   0
   4  -3   7  535.80   43.15   0
   4  -3   8   93.90   44.58   0
   4  -2  13  143.28   62.08   0
   7   0  13  318.97   60.48   0
   8   1   6  175.30   49.57   0
   9   2   8    4.60   53.52   0
   9   2  12   99.72   55.80   0
  -4  -1   7   14.11   33.42   0
  -2  -3   7  596.16   32.16   0
  -2  -3   8   73.26   33.47   0
   1  -3   3  502.76   33.13   0
   3  -2   2  527.23   30.61   0
   3  -1  16  207.04   56.50   0
   4  -2   3  944.68   35.81   0
   5  -2   5   25.09   37.92   0
   5  -2  11  -17.57   59.11   0
   6   0  15  198.19   60.53   0
   6   1  17   17.03   56.58   0
   7   0   5  151.38   39.69   0
   9   2   9  212.89   55.06   0
   9   2  11   82.60   54.09   0
   9   3   6  156.81   49.95   0
   9   3  15  -14.83   54.76   0
  -4  -1  10  285.00   37.24   0
  -3  -2   6  111.13   30.62   0
  -3  -2  10  447.63   36.27   0
   0  -2  14  220.99   52.68   0
   0  -1  16   60.30   49.66   0
   1   0  18  191.39   52.67   0
   2  -3  11  156.79   54.03   0
   2  -2  14  299.63   60.90   0
   3  -3  10  126.79   46.37   0
   4  -1  15  218.97   63.61   0
   4   0  17  130.45   54.78   0
   5  -1  14  225.87   63.28   0
   5   1  18   61.89   53.44   0
   6  -1  12   21.09   59.66   0
   9   2  10   60.74   53.13   0
  10   4  12   11.57   54.89   0
  -3  -1  13   53.09   42.17   0
   0   1  19   22.42   46.95   0
   1  -3  11  220.71   52.37   0
   3  -3   5   28.64   36.36   0
   3  -1   1  188.27   31.24   0
   4  -2  12   10.06   64.08   0
   5  -2  10  176.37   56.74   0
   5   0  16    1.20   60.88   0
   7   0  12  -28.77   57.20   0
   7   1  15   44.51   58.41   0
   7   2  17  -76.19   58.20   0
  10   4  10  -37.86   51.22   0
  10   4  11  179.10   51.08   0
  -4  -1   8  542.01   37.27   0
  -3  -2   9   56.81   33.84   0
  -2  -2  12    7.93   42.96   0
  -1  -2  13   23.87   49.87   0
  -1   0  17  -34.30   45.08   0
   1   1  19    4.72   49.08   0
   2  -3   4  460.88   34.55   0
   3  -3   9   42.70   45.65   0
   3  -2  13   57.27   58.96   0
   5  -2   9   79.78   50.22   0
   6  -1  11  110.54   57.94   0
   6   1   2  241.08   36.26   0
   8   1   7   71.49   50.57   0
  10   5  15  -22.25   52.31   0
  -3  -2   7  147.96   31.49   0
  -3  -2   8  267.88   34.42   0
  -2   0  16  -36.48   45.79   0
  -1  -3   5  426.88   30.49   0
  -1  -1  15   61.27   47.49   0
   0  -3   4  386.12   31.67   0
   0   2  20   71.12   41.17   0
   2  -3  10  202.21   44.57   0
   3  -3   7  -18.82   38.73   0
   5  -2   7   48.88   40.88   0
   5  -2   8  127.16   43.55   0
   5  -1  13  -51.86   61.93   0
   6   0  14  139.44   64.40   0
   6   2  18  -20.96   53.06   0
   7   0   6  189.22   41.43   0
   8   1   8  -63.15   54.36   0
   8   1  10 -106.33   58.74   0
   9   4  16  -17.02   53.07   0
  -2  -1  14   62.06   47.00   0
   1  -3   4  581.02   33.20   0
   1  -3  10  173.94   49.45   0
   2  -2   2  326.91   29.05   0
   3  -1  15   50.77   62.71   0
   4  -2   4 1709.79   39.30   0
   4  -2  11  130.51   56.75   0
   4  -1   2  131.21   32.21   0
   4  -1  14   39.14   66.05   0
   5   1   1    7.25   34.56   0
   6  -1  10  232.00   57.13   0
   6   1  16   87.00   60.29   0
   7   1   4   19.25   39.20   0
   7   1  14  112.93   60.60   0
   8   1   9  252.30   54.53   0
   8   2   5  120.78   43.06   0
   9   3   7   25.89   49.21   0
   9   3  13  -10.94   61.00   0
  -1  -3   6 1218.23   33.30   0
  -1   1  18   38.53   46.08   0
   0  -2   2  879.44   30.10   0
   0   0  17   44.43   51.20   0
   1  -2  13   -9.61   59.36   0
   2  -3   5  800.69   37.19   0
   2  -3   9  303.60   42.93   0
   3  -2  12  202.32   62.21   0
   4   0  16  -93.35   62.19   0
   5   0  15   30.65   63.22   0
   5   1  17   52.56   62.26   0
   6  -1   8  359.51   50.89   0
   6  -1   9   71.23   52.63   0
   7   2  16  138.62   61.26   0
  -2  -2  11  179.08   41.00   0
   0  -3   9  321.49   41.77   0
   0  -1  15  112.42   53.00   0
   1  -3   9  255.02   41.58   0
   2  -3   8  -64.85   40.36   0
   5  -1  12  161.20   58.87   0
   6   0  13  -55.56   65.86   0
   9   3  12   95.50   55.37   0
  -3  -1  12  227.57   41.32   0
  -2   1  17   40.28   43.99   0
  -1  -2  12  175.36   44.09   0
   0  -3   5  680.99   32.78   0
   1  -3   5  804.61   34.48   0
   1  -2   2 2127.09   35.08   0
   2  -3   6  343.08   36.62   0
   2  -3   7  125.93   38.26   0
   3  -2   3 1206.34   33.09   0
   3   1  18  -16.35   57.03   0
   4  -2  10  109.28   46.25   0
   7   2   3   70.15   37.24   0
   9   4  15   54.28   57.60   0
  10   5  13   -5.88   53.96   0
  -3  -1   4  669.98   39.07   0
  -1   2  19   15.49   44.85   0
   0  -3   6   -4.38   34.90   0
   0  -3   8   70.33   34.31   0
   0   1  18   -9.01   53.97   0
   1  -3   8   66.56   37.75   0
   4  -2   5   12.74   34.89   0
   4  -2   9  395.00   44.89   0
   5   2  18  -25.56   63.49   0
   6   0   4  -19.00   35.03   0
   6   1  15   57.87   63.40   0
   6   2  17  -43.83   60.32   0
   6   3   1  191.82   50.00   0
   7   1  13  195.00   58.47   0
   9   3   9    7.83   54.68   0
   9   3  11   77.01   53.10   0
  10   5  12  -45.21   53.69   0
  -3   0  14   59.27   43.94   0
  -2  -2  10   85.06   37.44   0
  -1  -1  14  149.08   50.31   0
  -1   0  16  233.82   47.82   0
   0  -3   7 1306.76   35.83   0
   1  -3   7   -5.14   37.03   0
   3  -2  11  -65.08   49.52   0
   4  -2   6   15.42   40.43   0
   5  -1  11  278.02   59.24   0
   5   0  14   55.46   62.20   0
   6   0  12  131.89   61.45   0
   7   3  17  -40.11   64.48   0
   8   2   6  328.10   46.61   0
   9   3  10  101.04   52.98   0
  10   5  10   80.02   52.91   0
  10   5  11   34.48   50.97   0
  10   6  15   66.06   52.50   0
  -2  -1  13  128.81   42.85   0
  -2   0  15  234.44   48.47   0
  -1  -2   3 3574.74   40.13   0
   1  -2  12  178.46   52.09   0
   2  -1   1 1563.65   34.89   0
   4  -2   8  187.01   42.17   0
   4   0  15  -62.36   65.47   0
   5   1  16    9.20   62.18   0
   7   1   5  788.05   40.95   0
   7   1  12  133.21   61.20   0
   7   2  15  -15.80   57.63   0
   9   4  14   43.39   60.58   0
  -3  -1  11   -9.78   38.61   0
  -1  -2  11  -63.61   41.85   0
   0   0  16    7.01   51.07   0
   0   2  19 -117.83   49.63   0
   2  -1  14  -93.10   58.86   0
   2   0  16  -33.71   55.09   0
   3  -2  10  568.64   45.65   0
   5  -1  10  -56.47   53.65   0
   6   3  18  -94.48   60.88   0
   9   5  16   -8.99   53.36   0
   2  -2  11  185.75   46.44   0
   3  -2   4   15.00   31.65   0
   5  -1   5   24.86   33.32   0
   6   0  11  105.11   58.15   0
   6   1  14  156.33   68.29   0
   7   4  18  187.79   59.39   0
   8   2   7  -28.46   49.50   0
   8   2  11   98.86   56.63   0
  -4   0  11  -23.54   40.91   0
  -1   1  17  153.31   48.67   0
   0  -1   1 1961.71   37.42   0
   0   3  20  -19.28   44.74   0
   1  -2  11  117.83   49.85   0
   2  -2   3  272.75   30.08   0
   5  -1   9  518.30   44.55   0
   5   0  13  236.98   59.66   0
   6   2  16   36.40   62.57   0
   8   2   8  147.33   52.82   0
   8   2  10   11.39   54.95   0
   9   4  13   15.52   55.86   0
   1   3  20   45.80   47.90   0
   3  -2   9  137.07   43.00   0
   5  -1   6  437.13   36.38   0
   5  -1   8    8.60   41.29   0
   5   2  17   21.66   60.96   0
   6   0  10  252.57   54.14   0
   6   1   3    5.65   35.79   0
   6   4  19   82.82   53.49   0
   7   1   6   72.03   41.78   0
   7   2  14   80.05   58.22   0
   7   3  16   19.35   61.59   0
   8   2   9  -47.63   53.10   0
   9   4   7   90.27   48.05   0
  -3   0  13  123.05   42.78   0
  -3   1  15   81.77   44.33   0
  -2  -2   8  168.88   30.68   0
  -2  -1  12   69.50   45.11   0
  -2   1  16   83.12   46.73   0
  -1  -1  13   61.80   46.37   0
  -1   0  15  107.30   49.95   0
   1  -1   1   18.42   27.61   0
   2  -2  10  -13.78   42.71   0
   3  -2   5 2705.38   38.28   0
   3  -2   8   49.61   39.65   0
   3  -1   2  916.85   30.86   0
   4  -1  11  154.23   48.74   0
   5   1  15   77.97   63.16   0
   8   3   5  312.95   42.65   0
   9   4  12  102.86   54.72   0
   9   5  15  -58.73   59.36   0
  10   6  13   16.09   53.35   0
  -3  -1  10  405.12   35.20   0
  -2  -2   7  174.10   30.17   0
  -1   2  18   30.86   48.26   0
   0  -2   3  322.33   27.97   0
   1  -2   3  855.06   30.61   0
   3  -2   7  744.94   38.52   0
   6   0   8  211.71   47.23   0
   6   1  13  127.24   59.05   0
   7   1   7   28.64   45.02   0
  10   6  12  207.92   52.02   0
  10   7  15  -63.78   55.29   0
  -2   0  14   83.63   43.69   0
   0  -2  10  -19.86   42.52   0
   0   0  15  -37.15   55.94   0
   1  -2  10  400.01   41.11   0
   5   0  12   68.99   59.47   0
   6   2   2   37.39   36.11   0
   6   3  17  -15.27   62.51   0
   7   2   4  148.55   37.34   0
   7   2  13 -152.47   61.08   0
   7   4   2  122.06   46.19   0
   9   4   8  130.45   50.55   0
   9   4  11  136.73   53.49   0
  10   6  11    8.30   53.60   0
  -4   0  10  463.93   39.51   0
  -1  -2   4  127.27   28.96   0
  -1   3  19   25.45   47.25   0
   4  -1   4  158.37   33.34   0
   4  -1  10  207.54   45.57   0
   4   4  20  -99.15   54.69   0
   6   2  15  147.66   64.73   0
   7   4  17  -71.34   59.90   0
   8   4   4  147.01   43.14   0
   9   4   9   36.87   53.99   0
   9   4  10   99.30   53.18   0
   9   5  14   31.56   62.30   0
  -2   2  17   -8.37   45.98   0
  -1   4  20  103.54   45.98   0
   2  -2   8  396.15   39.46   0
   5   1  14  104.48   61.80   0
   5   2  16  152.45   67.76   0
   6   1  12  152.22   61.07   0
   7   3  15   16.67   58.95   0
   9   6  16   36.95   55.59   0
  -3  -1   5  894.37   36.14   0
  -2  -1  11  106.62   39.09   0
  -1  -1  12  208.87   43.09   0
  -1   1  16  -20.63   48.53   0
   0  -2   9 1002.72   38.68   0
   1  -2   9   39.68   36.47   0
   2  -2   5  116.91   32.70   0
   4  -1   9  110.76   42.86   0
   5   0  11  186.76   55.06   0
   6   4  18   52.03   59.92   0
   8   3   6   40.07   43.17   0
  10   7  14  -36.35   54.96   0
  -1   0  14   94.53   51.88   0
   1  -2   4   96.78   29.39   0
   2  -2   6 2231.46   38.36   0
   2  -2   7   18.82   35.89   0
   4  -1   5  352.45   36.54   0
   6   1   4  351.05   35.08   0
   7   3   3  304.63   39.04   0
   7   5  18    2.36   62.21   0
   9   5  13   76.77   57.32   0
  -3   0  12  123.56   41.60   0
  -2   3  18    0.15   44.60   0
  -1  -2   6  190.38   29.98   0
   0  -2   4 1042.61   29.19   0
   0  -2   8  181.63   35.68   0
   1  -2   8  517.21   36.66   0
   1   3  19  130.49   55.73   0
   4  -1   8  356.09   40.04   0
   5   0  10   19.90   47.97   0
   6   1  11  318.33   58.81   0
   6   2  14   40.18   63.13   0
   6   3  16 -192.46   64.25   0
   6   5  19  -54.99   57.69   0
   7   2   5  169.01   38.46   0
   9   7  17   -8.84   53.70   0
  10   7  13  -99.53   54.16   0
  -4   0   9   31.13   37.24   0
  -3  -1   8   16.30   32.38   0
  -3   1  14   15.00   43.44   0
  -2   0  13  127.07   45.32   0
  -2   1  15   27.41   46.76   0
   0   4  20  152.34   48.17   0
   1  -2   7   77.27   36.69   0
   3  -1   3  189.65   29.87   0
   3  -1  10   91.38   44.41   0
   3   0   1 2777.02   40.03   0
   4  -1   6  384.74   35.96   0
   4   0  12  459.86   53.53   0
   5   1   2  259.26   31.37   0
   5   1  13   70.27   63.47   0
   7   3  14   76.63   59.73   0
   7   4  16  -65.45   58.31   0
   7   6  19   -1.48   54.07   0
   9   6  15  103.63   60.23   0
  -3  -1   6   59.01   31.04   0
  -3  -1   7 1034.18   34.43   0
   0  -2   5  403.63   31.33   0
   0  -2   7  210.24   34.68   0
   1  -2   6  178.35   32.27   0
   1   4  20  -40.73   51.93   0
   1   5  21  -42.10   50.05   0
   2  -1   2  174.48   28.30   0
   2  -1  11   99.16   43.48   0
   5   2  15 -167.04   67.30   0
   8   3   8  179.25   51.71   0
   8   3   9   14.58   52.33   0
   9   5   7  293.24   49.77   0
   9   5  12  207.70   55.07   0
  10   7  12   29.64   51.63   0
  -4   1  12   90.20   42.62   0
  -2  -1  10  191.97   34.29   0
   0  -2   6   47.29   29.91   0
   5   0   9  278.46   42.48   0
   6   1  10   27.51   49.88   0
  10   7  11   96.84   53.26   0
   1  -1  11  191.48   44.87   0
   4   0  11   59.73   48.89   0
   5   0   8  679.46   40.04   0
   5   2   1   37.80   39.62   0
   6   2  13  170.30   59.61   0
   6   4  17  -23.89   62.07   0
   7   2   6   47.79   38.70   0
   7   5  17  -42.38   63.07   0
   9   5   8   53.95   50.49   0
   9   5  11  -29.85   54.50   0
   9   6  14   67.54   61.99   0
   9   7  16   49.82   56.88   0
  -2   2  16   60.79   49.57   0
   2  -1  10  320.39   44.85   0
   5   0   6  624.54   35.26   0
   5   0   7    0.14   37.65   0
   5   1  12  184.96   58.41   0
   6   1   9  520.98   46.88   0
   6   3  15   79.11   66.60   0
   7   2   7  146.40   44.64   0
   7   3  13  109.31   59.30   0
   8   4   5  -16.02   42.52   0
   9   5   9  103.99   54.65   0
   9   5  10  166.49   53.32   0
  10   8  14   -1.00   54.28   0
  -4   0   6   52.59   40.45   0
  -3   0  11  515.24   36.71   0
  -3   2  15   60.91   46.31   0
  -1  -1   2 1224.37   36.75   0
  -1   0  13  264.67   45.14   0
   3  -1   4  366.48   31.03   0
   3  -1   8  287.84   37.98   0
   6   1   8   69.41   46.75   0
   6   5  18  134.25   64.79   0
   7   4  15   86.20   58.42   0
   8   4  12  -57.96   57.35   0
  -4   0   7  499.55   38.13   0
  -1   4  19   -4.81   50.03   0
  -1   5  20   35.77   48.89   0
   5   2  14  150.28   60.30   0
   7   6  18  138.82   63.46   0
   9   8  17  -38.40   54.08   0
  10   8  13   55.32   55.41   0
  -3   1  13  128.99   43.53   0
  -2   0  12  376.17   42.78   0
  -2   1  14  277.29   46.54   0
   1  -1  10  306.28   39.12   0
   3  -1   5 1607.10   34.61   0
   3  -1   6   70.73   35.01   0
   3  -1   7  323.84   36.70   0
   3   5  20  148.15   56.92   0
   4   0   3  143.41   31.55   0
   4   0  10  140.12   45.43   0
   5   6  20  -57.29   54.85   0
   6   2   3 1023.01   38.53   0
   6   2  12   47.20   59.06   0
   6   6  19  127.61   60.69   0
   7   3   4  452.53   40.36   0
   7   7  19   76.09   59.87   0
   9   6  13   66.07   54.73   0
   9   7  15  142.97   63.36   0
  -2   3  17   73.76   48.42   0
   0  -1  10  682.27   40.82   0
   0   4  19   15.21   56.63   0
   2  -1   9  -33.29   40.24   0
   5   1  11  -99.27   47.12   0
   6   4  16  -96.87   66.36   0
   7   5  16   10.34   62.99   0
   8   4   6  239.22   44.66   0
   8   4  11  120.10   57.43   0
   8   5   4  117.36   45.17   0
   0   5  20   51.64   53.14   0
   0   6  21   36.89   46.79   0
   1  -1   2 3284.72   37.46   0
   1   4  19  -26.94   56.55   0
   3   0  11  519.12   46.19   0
   6   3  14   63.59   60.52   0
   7   4  14   25.06   63.12   0
   9   6  12   19.98   55.75   0
  10   8  12    3.41   52.02   0
  -4   1  11  194.04   39.62   0
  -3   3  16  191.32   45.89   0
  -2  -1   8  275.67   29.82   0
   1   5  20   61.49   54.73   0
   1   6  21   54.89   47.99   0
   2  -1   8  673.71   37.99   0
   6   2  11  199.73   54.72   0
   8   4  10  108.53   54.46   0
   9   8  16   69.50   60.42   0
  -3   0  10   67.70   34.19   0
  -1   0  12  -45.30   43.30   0
   0  -1   2  275.16   28.81   0
   1  -1   9  865.44   38.04   0
   5   1  10   55.11   44.56   0
   5   2  13  -31.71   62.14   0
   7   6  17   77.52   63.95   0
   8   4   9  214.24   54.99   0
   9   6   7   99.79   51.38   0
   9   6  11   83.91   58.81   0
   9   7  14   25.30   60.78   0
  10   9  14  -17.99   54.51   0
   0  -1   9  101.85   36.14   0
   4   0   4 1094.58   33.05   0
   4   0   8   83.77   40.34   0
   4   6  20  -15.68   59.16   0
  -2   0  11   49.14   36.98   0
  -2   2  15   70.68   47.17   0
   2  -1   7   42.06   35.67   0
   4   0   7  906.68   41.33   0
   6   2   4  284.09   38.33   0
   6   2  10  152.19   51.44   0
   6   3  13  138.94   60.51   0
   6   4  15  -22.50   68.79   0
   7   3   5  227.33   39.03   0
   7   4  13  -47.74   63.47   0
   7   5  15  122.65   63.52   0
   9   6   8   60.73   50.98   0
   9   6  10   37.11   57.65   0
   9   9  17   25.31   54.83   0
  -3   2  14   68.97   44.88   0
   1  -1   8  116.80   35.55   0
   2  -1   5 1124.54   32.65   0
   2  -1   6 1235.70   35.12   0
   3   0   2  489.01   31.50   0
   3   5  19   70.37   62.83   0
   4   0   5  732.25   33.79   0
   4   0   6  101.34   34.70   0
   5   1   9  109.52   41.37   0
   6   3   2  417.23   41.35   0
   7   4   3 1078.77   45.32   0
   7   7  18   28.40   62.41   0
   8   5  12   40.45   61.84   0
   9   6   9   -8.60   53.79   0
  10   9  13   88.67   55.20   0
  10  10  15  101.29   53.56   0
  -3   1  12   39.50   40.62   0
  -2   1  13  138.42   46.61   0
  -1   4  18  226.74   50.35   0
   3   6  20   78.60   61.03   0
   5   2  12  185.30   53.98   0
   5   7  20  -71.98   58.99   0
   6   2   9  -32.61   48.69   0
   7   8  19  121.76   60.35   0
   9   7  13   92.30   57.31   0
   9   8  15   56.59   64.07   0
  -1   5  19   32.63   52.10   0
  -1   6  20    4.26   48.45   0
   0  -1   8  538.22   34.58   0
   1  -1   3  302.90   26.95   0
   3   0   9  592.56   40.06   0
   5   1   8 1116.06   39.93   0
   6   8  20   -4.68   54.09   0
   7   3   7  112.79   43.47   0
  -4   1  10   23.45   39.50   0
  -3   0   9   31.55   33.14   0
  -2   3  16   -9.38   51.27   0
  -1  -1   3   66.59   28.35   0
   0   4  18  -21.36   55.15   0
   1  -1   7  717.02   34.37   0
   5   1   7  552.90   39.63   0
   6   2   5  109.59   35.33   0
   6   3  12  160.88   62.37   0
   7   6  16   17.57   60.77   0
   8   5   5  126.12   45.23   0
   8   5  11  198.16   59.77   0
   9   9  16  -31.14   61.32   0
  10  10  14   23.03   56.93   0
  -1  -1   7  195.25   29.83   0
   0   5  19   58.43   57.60   0
   0   6  20    1.56   56.68   0
   0   7  21   19.53   47.21   0
   1   7  21   40.49   54.20   0
   2   0   1  467.50   30.09   0
   2   0  10  389.11   42.84   0
   5   1   6  103.46   36.56   0
   7   5  14  283.74   63.74   0
   9   7  12    5.94   58.00   0
  -3   3  15   16.08   47.18   0
  -2   0  10  609.90   35.48   0
   0  -1   7   42.01   31.05   0
   1  -1   4 2069.48   32.73   0
   1  -1   6   25.20   32.04   0
   1   6  20  -13.77   58.88   0
   3   0   8  245.11   38.44   0
   4   1  10    0.76   44.18   0
   4   6  19   42.07   61.30   0
   4   7  20   31.40   61.43   0
   4   8  21  -78.06   60.69   0
   5   2  11   98.80   47.11   0
   7   7  17  -81.31   66.61   0
   9   8  14   80.57   62.16   0
   9  10  17   49.45   58.85   0
  -4   2  12   51.36   44.10   0
  -1  -1   6  506.56   32.16   0
   0  -1   3  850.69   30.19   0
   8   5  10  223.46   58.29   0
   8   6  13 -111.07   61.78   0
   9   7  11   26.18   61.11   0
  -2   5  18  214.70   50.48   0
  -1  -1   4 4160.87   43.00   0
   0  -1   6  161.82   31.86   0
   3   0   3  153.46   29.09   0
   3   1  11   30.63   48.98   0
   5   2   2  523.81   36.16   0
   6   3  11  -88.57   52.93   0
   7   8  18 -103.89   66.41   0
   8   5   9  125.47   58.26   0
   9   7   7  -19.60   52.46   0
  -3   0   8  515.99   34.11   0
  -3   1  11  378.18   38.00   0
  -2   1  12  360.54   41.17   0
  -1  -1   5  223.67   31.04   0
   0  -1   4  365.56   29.02   0
   2   0   9  170.12   39.30   0
   3   0   7   58.34   36.79   0
   5   7  19   80.23   66.09   0
   5   8  20  -27.20   61.60   0
   7   9  19   65.03   61.80   0
   8   5   7   91.45   50.01   0
   9   9  15   93.25   64.50   0
  -3   2  13  -55.86   44.58   0
  -3   4  16   10.08   48.37   0
  -1   4  17   32.60   52.86   0
  -1   8  21   -2.56   46.79   0
   3   6  19  -64.97   60.28   0
   3   7  20   36.09   63.46   0
   3   8  21   35.53   59.25   0
   4   1   9  181.17   41.87   0
   5   2  10   89.33   44.41   0
   6   4  13  -16.97   62.62   0
   6   9  20  103.14   54.81   0
   9   7   8  181.53   54.29   0
   9   7   9   66.75   55.36   0
   9   8  13   63.94   59.57   0
   3   0   4   79.77   29.17   0
   3   0   5  176.93   34.60   0
   3   0   6  609.47   34.65   0
   8   6  12  152.04   60.45   0
   9  10  16  136.57   64.28   0
  -2   0   9  528.35   33.61   0
  -1   5  18   32.32   55.58   0
   0   4  17  160.49   58.85   0
   2   5  18   51.11   60.91   0
   9  11  17   22.51   56.39   0
  -1   6  19   64.63   52.37   0
   0   8  21  -62.19   49.49   0
   1   0   9  105.74   37.91   0
   2   0   8  272.47   37.71   0
   4   1   8  129.89   40.82   0
   5   2   9  411.23   44.17   0
   5   3  12   84.46   52.31   0
   9   8  12  163.79   60.10   0
   9   9  14  180.39   63.12   0
   0   5  18  113.87   57.42   0
   1   8  21   20.83   53.37   0
   4   2  11  373.18   48.77   0
   4   8  20   23.41   62.85   0
   6   3   9  141.31   49.19   0
   7   8  17   51.71   70.53   0
   8   6  11   44.17   59.58   0
   1   7  20   91.42   59.01   0
   1   1   3  565.81   24.29   0
   2   4  -2   45.54   29.82   0
   3  -1   7  277.62   36.27   0
   3   0   7   43.25   34.06   0
   3   3   6 1509.56   30.67   0
   3   5  -3  653.57   36.72   0
   4   0   8   82.93   37.40   0
   5  -3   8  190.00   53.57   0
   5   4   8  745.33   36.98   0
   5   7  -2  228.01   37.49   0
   7   5   9  246.24   48.57   0
   8   7   8  -36.99   48.25   0
   8   9   1  -34.72   54.94   0
   8   9   2  -14.95   52.14   0
   9   6   9   48.27   62.78   0
   9   8   7  230.02   69.60   0
  10   6   9   25.58   67.40   0
  10   9  -1  -67.38   55.74   0
  10   9   5   54.39   69.20   0
  11   7   8 -122.24   71.68   0
  12   8   6   77.78   61.56   0
  12   9   1  -55.96   55.31   0
  12   9   2   47.78   59.55   0
  12   9   3  -42.23   60.58   0
   2   4   1  739.91   26.34   0
   3   4   5   78.23   25.30   0
   3   5   3   69.11   26.24   0
   4   6   4   20.97   28.55   0
   5   7   4  173.17   32.79   0
   6   7  -4    9.31   46.01   0
   6   7   6  159.54   37.15   0
   6   8   1  313.64   39.72   0
   9   7   8  184.07   66.00   0
   9   9   0   73.96   54.96   0
  11   0   9  -88.78   65.49   0
  11   5   9   70.32   62.78   0
  11   9   0   33.06   53.52   0
  12   6   8   44.14   61.11   0
  12   7   7  185.83   65.02   0
  13   6   7   82.74   54.65   0
  13   7   6   70.76   54.08   0
   7   7   7  -97.46   42.71   0
   7   8  -2  127.59   51.35   0
   7   8   5  276.66   40.96   0
   8  -2   9  128.64   62.46   0
   8   8   6  647.22   52.52   0
   9   9   1  117.07   57.83   0
  10   9   0  151.77   58.39   0
  11   9   1   73.91   57.85   0
  11   9   2    2.07   60.15   0
   5   5   7  349.93   33.77   0
   5   7   3 1371.53   37.56   0
   6   6   7  372.48   39.48   0
   7   4   9  -25.14   50.74   0
   8   8  -3  101.52   53.42   0
   9   9   2  242.33   56.05   0
  10   5   9  -22.54   64.59   0
  10   9   1   37.73   56.00   0
  10   9   2  131.00   61.50   0
  11   1   9  -55.05   66.73   0
  11   8   6  -62.20   70.93   0
  12   5   8  -71.20   62.00   0
  12   8   5  -32.85   61.16   0
  13   8   0  -85.47   49.26   0
   2   4   0 4348.12   38.55   0
   4   6   3 1644.16   32.58   0
   5   7  -1  126.27   36.52   0
   6   0   9  147.22   51.87   0
   9   8   6   43.88   62.69   0
  10   8   6  107.19   68.56   0
  11   2   9  -42.77   65.75   0
  11   6   8  -12.25   68.76   0
  11   7   7  -85.11   69.79   0
  13   5   7   62.85   54.92   0
  13   7   5  211.66   57.67   0
  13   8   1   37.27   49.39   0
  13   8   2  166.26   51.70   0
   1  -2   4   71.85   36.64   0
   4   3   7  294.20   31.87   0
   4   6  -2 1577.90   37.73   0
   5   3   8  223.51   34.19   0
   6   7   5  194.85   38.85   0
   8   6   8  221.96   50.49   0
   8   7   7  287.31   46.77   0
  10   6   8  123.78   64.75   0
  11   8   5   36.24   73.06   0
  12   4   8  -32.95   66.02   0
  12   6   7  114.28   62.60   0
  12   7   6  -73.72   63.84   0
  12   8  -2   63.60   49.23   0
  12   8   4  186.34   67.66   0
  13   6   6  105.00   58.02   0
   2   1   5  663.62   28.19   0
   4   5   5   28.50   30.01   0
   5   7   0  148.25   34.10   0
   7  -1   9   94.53   57.62   0
   7   7   6  252.45   45.16   0
   7   8  -1  -33.32   46.61   0
   8   4   9  209.65   55.81   0
   9  -1   9  -59.06   60.42   0
   9   4   9   88.82   62.71   0
   9   6   8  -14.73   64.43   0
   9   7   7  -27.05   66.16   0
   9   8  -3  198.73   56.93   0
  10   0   9  -27.45   63.14   0
  10   7   7  -26.20   67.62   0
  13   4   7  -35.87   60.37   0
   1   2   1   24.11   19.39   0
   2   3   3  121.14   22.59   0
   3   2   6  204.56   27.31   0
   3   5  -2  875.52   33.18   0
   4   4   6   27.71   30.15   0
   4   6   2  611.99   30.93   0
   5   6   5   -1.20   34.49   0
   6   4   8  -11.96   40.76   0
   7   5   8   80.15   43.60   0
   7   8   0  405.19   47.94   0
   8  -1   9  100.94   60.78   0
   8   8  -2   40.79   55.65   0
   9   8   5  284.18   64.61   0
  10   2   9   14.50   66.64   0
  10   8   5   29.15   69.04   0
  11   5   8   98.53   69.13   0
  12   1   8  -28.00   57.24   0
  12   8  -1   52.35   53.41   0
  13   7   4   72.98   58.42   0
   3   4   4    9.19   25.73   0
   5  -2   8  116.28   44.15   0
   6   7  -3  356.57   45.22   0
   7   0   9  122.04   55.09   0
   7   6   7  161.62   45.33   0
   7   8   1   71.73   43.46   0
   9   0   9   30.31   62.53   0
  11   7   6  -46.14   72.36   0
  11   8  -2   61.84   52.26   0
  11   8   4   58.48   65.83   0
  12   7   5   50.46   61.43   0
  12   8   0  163.61   56.59   0
  12   8   1  -54.32   61.57   0
   3   5   1   -1.71   26.72   0
   4   6  -1   50.29   31.28   0
   5   4   7   82.69   34.63   0
   6   6   6   14.39   37.47   0
   6   7   4  359.46   37.55   0
   7   1   9   28.66   49.64   0
   8   7   6  199.15   49.82   0
   9   1   9  124.77   62.55   0
   9   8   4   93.19   64.73   0
  10   5   8  252.39   62.82   0
  10   8   4   55.83   67.21   0
  11  -1   8  131.30   63.90   0
  11   4   8  130.19   65.07   0
  11   6   7  261.56   67.20   0
  12   5   7   15.19   60.96   0
  13   5   6  -19.41   56.19   0
  13   6   5 -152.72   54.00   0
   2   2   4 1149.67   26.68   0
   3   5  -1  114.02   28.42   0
   5   5   6   73.22   31.65   0
   6   5   7   34.46   38.80   0
   7   7   5   23.92   43.91   0
   8   8  -1   96.29   50.85   0
   9   7   6  106.80   66.39   0
   9   8  -2  133.88   54.69   0
  10   7   6   26.92   66.82   0
  10   8  -2   52.87   54.22   0
  11   8  -1  -45.24   55.89   0
  12   6   6   75.92   61.88   0
   3   3   5   79.24   25.86   0
   5  -1   8   22.57   41.21   0
   6   3   8  132.70   42.53   0
   7   7  -4  178.15   50.80   0
   8   6   7   86.55   45.41   0
   9   6   7   42.78   63.11   0
  10  -2   8   12.18   60.29   0
  10   6   7   74.96   64.75   0
  11   8   0  131.49   55.73   0
  11   8   1  -35.10   59.16   0
  12   4   7    3.50   60.28   0
  12   7   4  160.74   59.69   0
  13   4   6    5.71   53.81   0
  13   7  -1  -66.70   48.65   0
  13   7   0   52.75   50.66   0
  13   7   1   43.86   53.06   0
   4   5   4  658.24   29.98   0
   5   0   8  659.01   38.10   0
   5   6   4 1240.37   34.92   0
   6   7   3    8.91   35.46   0
   7   4   8  355.99   44.65   0
   8   8   0   46.68   53.32   0
   8   8   1  154.59   50.75   0
   9   8  -1   25.31   53.35   0
  10   8  -1  115.26   57.48   0
  11   0   8   98.50   61.23   0
  11   1   8  -23.07   66.69   0
  11   5   7  -73.19   71.81   0
  11   7   5   37.02   71.26   0
  13   6   4   23.19   55.10   0
   3  -4   6   69.84   39.88   0
   4  -3   7  539.16   42.65   0
   5   6  -4   89.34   42.88   0
   6   7  -2  110.17   40.78   0
   8  -3   8   -6.99   57.31   0
   8   4   8   74.82   55.44   0
   8   7   5   83.96   49.03   0
   9   8   0   96.87   58.48   0
   9   8   1 -119.51   55.97   0
  10   8   0   54.19   55.56   0
  10   8   1  178.06   61.12   0
  11   6   6   84.95   65.85   0
  12   3   7 -122.19   63.33   0
  12   6   5   69.42   61.71   0
  12   7  -3   89.84   50.66   0
  12   7   3   20.96   67.26   0
  13   3   6  -79.33   59.09   0
  13   5   5   24.01   57.46   0
   4   5  -5   72.85   42.01   0
   6   6   5  898.26   39.25   0
   7   6   6  -35.70   41.68   0
   9   4   8  150.33   59.73   0
   9   7   5  223.80   64.33   0
  10  -1   8  163.61   59.32   0
  10   7   5  147.05   66.58   0
  11   7   4  150.88   68.02   0
  12   0   7  123.60   55.10   0
  12   5   6  124.86   60.56   0
  13   6   3   21.28   56.74   0
   4   3   6  543.45   30.92   0
   6  -2   8  210.01   49.90   0
   6   7  -1  332.97   39.55   0
   7   3   8  102.16   49.29   0
   9  -2   8   56.87   58.46   0
  10   5   7  124.68   61.99   0
  10   6   6   78.60   64.91   0
  12   1   7  -13.55   56.81   0
  12   7  -2    0.59   55.54   0
   3   4   3 1249.87   27.58   0
   4   4   5   32.05   28.79   0
   5   5   5  678.67   35.16   0
   5   6   3   46.59   32.68   0
   6   4   7  408.87   38.31   0
   6   7   0  537.87   39.25   0
   8   5   7   75.34   47.19   0
   8   6   6   76.96   49.52   0
   8   7  -4   31.78   53.73   0
   9   3   8  197.04   62.57   0
   9   5   7  224.35   61.71   0
   9   6   6  181.55   60.16   0
  10   0   8  -10.96   58.21   0
  11   4   7   21.10   66.24   0
  12   7  -1   -8.40   55.87   0
  12   7   0    6.27   60.58   0
  13   4   5   52.55   54.62   0
  13   5   4  105.25   52.35   0
   2  -4   5  408.03   41.29   0
   4  -2   7  106.94   36.57   0
   4   0   7  860.34   32.65   0
   5   4   6  501.76   35.04   0
   6  -1   8  290.82   49.95   0
   6   5   6  146.70   35.10   0
   7   7  -3   72.02   49.62   0
   7   7   3  179.47   43.61   0
   8   3   8   93.10   53.62   0
   8   7   4  172.25   50.59   0
  10   1   8   -3.85   59.33   0
  10   7  -4   -2.41   53.39   0
  10   7   4  133.80   66.15   0
  11  -2   7   70.48   55.75   0
  11   5   6  -40.96   65.43   0
  11   6   5  -56.73   66.28   0
  11   7  -3   18.03   51.38   0
  11   7   3  136.63   64.67   0
  12   4   6   81.12   60.54   0
  12   6   4  -51.23   61.75   0
   1   0   3 2046.04   32.91   0
   4  -1   7  197.89   33.89   0
   4   5   3 1697.13   31.67   0
   5  -4   7  112.02   46.75   0
   6   0   8  136.80   41.91   0
   7  -2   8  144.57   54.23   0
   8  -2   8  -19.60   57.09   0
   9  -1   8   16.01   55.39   0
   9   7  -4  258.58   55.97   0
   9   7   4  -83.02   61.71   0
  11   3   7   53.26   59.82   0
  12   5   5   47.10   60.63   0
  13   3   5  -79.94   53.76   0
  13   6  -2  -10.38   46.90   0
  13   6   0   23.15   52.13   0
   1   2   0 4052.12   45.64   0
   5   6  -3  373.32   39.19   0
   6   6  -5  138.90   48.08   0
   6   6   4  -27.70   38.03   0
   7   4   7   36.92   42.84   0
   7   6   5   25.40   42.53   0
   9   0   8  130.25   59.01   0
  10  -3   7   38.90   55.76   0
  10   4   7   87.78   60.42   0
  10   7   3   57.53   65.40   0
  11  -1   7   50.26   59.68   0
  11   7  -2   50.18   54.96   0
  12   3   6   65.46   55.48   0
  12   6   3   37.67   58.20   0
  13   5   3  187.18   52.21   0
  13   6  -1   -0.31   46.92   0
   1   1   2 4121.25   38.56   0
   3  -3   6  138.11   36.41   0
   3   2   5  228.82   25.12   0
   5   2   7  858.73   33.34   0
   5   6   2  784.06   32.55   0
   7   0   8  164.67   51.01   0
   7   7  -2  211.58   46.60   0
   8  -1   8  128.89   55.86   0
   8   7   3   68.41   50.50   0
   9   4   7  118.08   59.21   0
   9   7   3   82.73   63.64   0
  10   5   6   23.11   62.71   0
  10   6   5  119.70   60.85   0
  10   7  -3   85.62   55.48   0
  11   0   7   34.74   62.18   0
  11   7  -1   98.99   57.63   0
  13   2   5   32.27   53.03   0
  13   4   4   38.04   52.79   0
   8   0   8   77.59   55.98   0
   8   4   7  207.28   46.95   0
   8   6   5  193.10   49.38   0
   8   7  -3  255.12   53.45   0
   9   6   5   10.50   60.26   0
  10   3   7  166.28   64.26   0
  11   4   6  143.85   65.88   0
  11   6   4  -28.70   64.09   0
  11   7   0   36.04   59.63   0
  12  -1   6  -43.73   52.07   0
  12   0   6   99.88   58.10   0
  12   2   6  191.40   60.64   0
  12   4   5   52.97   59.62   0
  12   5   4   10.36   60.08   0
  12   6  -4   -7.51   49.92   0
  12   6   2   48.19   63.10   0
  13   5   2   13.70   57.96   0
   3  -2   6  186.90   34.06   0
   3  -1   6   77.49   29.49   0
   4   2   6  626.16   29.89   0
   7   7  -1  155.18   44.16   0
   7   7   0  129.39   44.61   0
   8  -4   7   88.84   56.98   0
   8   5   6  358.25   48.64   0
   9   5   6   32.18   57.00   0
   9   7  -3  -48.20   56.47   0
  10  -2   7   61.11   59.67   0
  10   7  -2   85.68   56.54   0
  11   5   5   84.56   63.50   0
  13   3   4   31.49   56.37   0
   2  -3   5  821.06   37.93   0
   2  -2   5  129.19   30.67   0
   2   1   4 4017.13   34.80   0
   3   4   2  371.63   23.39   0
   4   5   2  125.68   27.40   0
   5  -3   7  -43.67   43.82   0
   5   6  -2   73.68   36.59   0
   6  -4   7   16.31   50.92   0
   6   5   5  -38.93   37.69   0
   7   6   4  210.14   42.33   0
   8   7  -2   50.93   52.06   0
  10   2   7  -13.57   62.17   0
  10   6   4   52.04   64.38   0
  10   7  -1   95.84   59.22   0
  10   7   0  132.47   63.40   0
  11  -3   6   14.95   54.61   0
  11   6   3  140.31   68.53   0
  12   6  -3   -7.22   56.07   0
  13   4   3   78.48   52.85   0
   2   2   3 4522.95   33.86   0
   4   4   4  124.90   28.26   0
   5   3   6  425.45   33.71   0
   5   6  -1  278.25   35.53   0
   7   3   7   93.51   41.04   0
   8   7  -1   80.56   54.30   0
   8   7   0  127.99   52.35   0
   9   7  -2  168.12   53.63   0
  10  -1   7  152.21   57.45   0
  10   4   6   15.47   60.97   0
  11   3   6  246.66   64.16   0
  12   3   5   77.14   59.42   0
  12   5   3  108.63   63.84   0
  12   6  -2   35.84   57.86   0
  12   6  -1  118.56   62.03   0
  13   2   4   17.24   56.14   0
   4   3   5 1748.88   31.55   0
   5   4   5  818.37   35.07   0
   6   2   7    1.04   35.89   0
   8   6   4   -5.71   48.10   0
   9   7  -1   35.61   58.69   0
   9   7   0   52.13   54.85   0
  10  -4   6  -19.55   58.77   0
  10   0   7  113.85   61.39   0
  10   5   5   56.19   64.59   0
  11  -2   6  -35.02   63.04   0
  12   4   4   50.89   58.77   0
  13   5  -2  -35.42   51.03   0
  13   5  -1   42.54   51.37   0
   2   3   1 1128.48   26.97   0
   4   5  -4  507.81   38.65   0
   5  -2   7   63.49   39.19   0
   7   5   5   33.33   43.06   0
   9  -2   7   -3.67   59.51   0
   9   2   7  131.73   62.96   0
   9   4   6  -52.57   62.28   0
  10   6   3   72.65   67.62   0
  11   2   6   62.41   60.56   0
  11   4   5   88.99   63.05   0
  11   5   4  189.64   63.03   0
  11   6  -4   88.87   53.71   0
  11   6   2   23.55   62.74   0
  12  -2   5   28.59   54.69   0
  12   2   5   94.20   55.32   0
  13   1   4    7.64   51.63   0
  13   3   3   15.04   54.34   0
  13   4   2   26.33   51.36   0
   4   5   1 1341.46   30.12   0
   5  -1   7  393.87   36.24   0
   6  -3   7  111.73   51.62   0
   6   6  -4  133.46   42.84   0
   6   6   2  112.92   36.99   0
   7   2   7  164.88   48.64   0
   7   6   3  239.97   42.75   0
   8  -3   7   83.57   56.48   0
   8   4   6  257.14   46.38   0
   9   5   5  267.57   54.63   0
  10   6  -5   -9.06   55.23   0
  11  -1   6  117.29   62.74   0
  12   5   2    3.25   60.59   0
   3   4  -5  270.73   43.54   0
   4   1   6   39.40   29.67   0
   5   5   3  886.98   33.06   0
   7  -3   7  -17.55   55.45   0
   7   6  -5   88.09   50.98   0
   8   2   7  -10.69   51.13   0
   9   6   3  -31.39   63.53   0
  10   3   6  -52.96   59.55   0
  11  -4   5  -31.13   52.74   0
  11   6  -3  129.90   55.70   0
  12  -1   5   64.94   55.37   0
  12   5  -5  -19.69   51.70   0
  13   4   1 -121.45   57.68   0
   3   1   5  547.05   26.73   0
   5   5  -6   21.49   42.84   0
   6   3   6  120.97   40.36   0
   8  -2   7  -36.15   55.23   0
   8   6   3  199.95   48.44   0
  10  -3   6   54.94   59.33   0
  10   5   4  103.30   62.98   0
  10   6   2   40.46   67.47   0
  11   3   5  187.96   65.42   0
  11   5   3 -115.40   68.13   0
  12   3   4  -31.58   59.31   0
  12   4   3  -35.43   59.43   0
  13   2   3 -145.70   51.89   0
   3   4   1  952.50   26.85   0
   5   2   6   39.50   35.43   0
   6  -2   7   49.94   49.68   0
   9   3   6  117.03   61.01   0
   9   6  -5   76.40   55.05   0
  10   2   6   80.50   64.17   0
  10   4   5   83.52   61.08   0
  11   4   4   56.20   65.21   0
  11   6  -2  -58.16   54.37   0
  11   6  -1  165.50   59.46   0
  12   5   1  -78.44   56.74   0
  13   3   2  -78.44   53.01   0
  13   4   0   73.70   53.12   0
   3   3   3 2759.29   30.45   0
   4  -4   6  117.32   41.92   0
   4   5  -3  483.70   34.58   0
   6  -1   7   -5.17   41.75   0
   6   4   5   90.43   37.60   0
   6   6  -3   87.21   40.27   0
   7  -2   7  207.50   53.60   0
   7   6   2   95.89   41.59   0
   8  -1   7  131.68   57.26   0
   8   6  -5  148.70   52.48   0
   9  -4   6   54.14   57.47   0
   9   6   2  274.27   62.89   0
  10  -2   6   95.34   61.41   0
  10   6  -4   79.52   52.75   0
  12   2   4   12.67   61.84   0
  12   5  -4  155.33   55.32   0
  13   1   3  132.36   53.09   0
   5  -5   6   -7.41   49.41   0
   7  -1   7  189.70   51.72   0
   7   3   6  598.19   41.26   0
   7   5   4   19.88   44.32   0
   8   3   6   60.22   45.48   0
   8   6   2  250.69   55.08   0
   9   5   4  318.00   54.30   0
  11  -3   5  -35.55   58.48   0
  11   2   5   54.93   65.11   0
  11   5   2  138.16   65.82   0
  12   4   2   17.25   63.41   0
  12   5  -3  -67.01   54.25   0
  13   4  -3   83.48   46.65   0
   3   2   4  803.29   26.46   0
   4   2   5  437.84   31.87   0
   4   5  -2 1084.65   35.22   0
   5   4   4  172.25   33.82   0
   6   6  -2  277.07   38.20   0
   6   6  -1   56.75   37.52   0
   7   6  -4  153.87   49.73   0
   8   5   4   90.28   49.73   0
  10  -1   6   20.16   60.92   0
  10   5   3  305.25   62.94   0
  10   6  -3   22.10   54.71   0
  12  -2   4   52.88   55.26   0
  12   1   4   98.20   58.90   0
  12   3   3   41.60   58.47   0
  12   5  -2  214.12   57.68   0
  13   2   2  187.62   53.88   0
  13   3   1   27.02   50.22   0
   2   0   4  200.49   27.14   0
   5   3   5   -7.71   32.99   0
   6  -5   6   29.95   53.72   0
   6   5   3  188.75   38.35   0
   7   6   1  224.52   43.28   0
   8   4   5   58.38   47.22   0
   9  -3   6   19.07   62.93   0
   9   2   6   65.81   58.26   0
   9   6  -4   -8.87   54.25   0
  10   3   5   74.85   59.95   0
  10   6  -2  209.85   56.66   0
  10   6  -1    4.43   60.43   0
  11  -2   5   58.64   63.54   0
  11   3   4  119.01   62.20   0
  11   4   3   31.06   65.33   0
  12   0   4   51.96   62.00   0
   2   3   0  404.91   24.21   0
   3   4   0  115.59   27.16   0
   4   3   4   53.44   28.22   0
   5   1   6  115.38   34.08   0
   6   2   6   98.97   36.07   0
   8   6  -4   97.07   52.99   0
   8   6   1  -12.35   48.73   0
  10   4   4  146.65   62.10   0
  11   5  -5   72.73   52.69   0
  11   5   1  -23.34   61.43   0
  12   4   1   79.07   55.56   0
  13   1   2  138.33   49.86   0
  13   3   0   18.93   53.47   0
   1  -1   3  316.85   30.58   0
   4  -2   6   42.79   35.34   0
   7   6  -3  101.27   43.85   0
   8  -4   6   33.98   58.41   0
   9   1   6   -4.20   59.93   0
   9   5   3   99.10   56.27   0
   9   6  -3   55.78   52.97   0
   9   6  -1   -3.22   57.91   0
  10  -4   5   -0.04   59.91   0
  10   5   2  -15.82   65.38   0
  12   2   3   64.27   58.64   0
  12   4  -6  -29.87   48.65   0
  13   0   2    8.81   55.67   0
  13   2   1  -78.88   52.53   0
   7   5   3  132.12   43.61   0
   7   6  -2  124.14   43.73   0
   7   6  -1  561.90   43.28   0
   8   5   3  215.61   49.67   0
   8   6  -3  144.16   51.57   0
   9  -2   6   31.20   58.55   0
   9  -1   6   19.72   62.42   0
   9   6  -2  -15.62   55.62   0
  10   2   5   52.16   60.45   0
  11  -4   4  -26.22   59.54   0
  11   2   4   73.84   68.65   0
  11   5  -4  -21.19   56.85   0
  12   3   2   29.12   59.14   0
  12   4   0  -71.76   58.36   0
  13   3  -1   61.77   49.42   0
   2   2   2 2232.79   29.22   0
   3  -5   5  456.51   42.03   0
   4   4   2 1387.98   32.12   0
   5  -4   6  303.77   47.18   0
   5   5  -5  397.52   42.66   0
   6   3   5  179.41   37.78   0
   6   4   4  766.14   39.27   0
   8   1   6  196.31   53.70   0
   8   6  -2  253.41   51.47   0
   8   6  -1    5.79   51.07   0
   9  -5   5   -4.86   56.91   0
   9   4   4   62.44   51.18   0
  10   5  -6   84.90   50.95   0
  11   4   2  -38.90   61.99   0
  11   5  -3   65.99   57.38   0
  12   1   3   23.92   60.16   0
  12   4  -5  144.88   54.70   0
  13   3  -3 -110.68   48.24   0
   3   4  -4  588.82   38.78   0
   6   1   6  410.03   38.69   0
   6   5   2   10.80   36.85   0
   7  -4   6  102.48   55.71   0
   7   3   5  187.23   45.22   0
   8  -3   6   76.44   55.57   0
   8   3   5  379.99   46.43   0
   8   4   4  137.24   51.12   0
  10  -3   5   65.33   60.15   0
  10   1   5  -59.43   60.69   0
  10   3   4   21.48   61.86   0
  10   4   3   39.99   62.47   0
  10   5   1  233.33   65.42   0
  11   5  -2   20.93   56.43   0
  12  -3   3  -83.33   53.87   0
  12   4  -4   51.78   56.58   0
  13   1   1    8.61   53.57   0
  13   2   0  -45.47   49.74   0
   5   4   3  291.47   33.22   0
   6  -4   6   18.27   51.36   0
   6   5  -6  217.30   47.72   0
   7   1   6   77.26   44.62   0
   7   4   4  220.00   42.74   0
   9   5   2  326.51   59.20   0
  10  -2   5    0.94   60.26   0
  11  -3   4  -28.56   60.78   0
  11   1   4 -112.02   64.09   0
  12   0   3  -30.14   56.95   0
  12   4  -3   74.97   56.23   0
  13   0   1  161.08   51.61   0
   2   1   3   20.88   22.64   0
   3   3   2 3913.76   32.67   0
   4   1   5  108.69   30.59   0
   5  -3   6  267.92   40.82   0
   5  -1   6  324.19   37.30   0
   5   2   5  737.58   33.78   0
   7   5   2  397.86   44.91   0
   8  -2   6  177.11   58.09   0
   8   5   2  -30.45   51.82   0
   9   2   5   96.59   57.15   0
  10   5  -5   59.72   53.22   0
  11   0   4  134.38   61.73   0
  13   2  -1 -127.51   53.27   0
   3   4  -3  112.50   31.48   0
   3   4  -2 3081.01   38.17   0
   5  -2   6   19.43   38.75   0
   7  -3   6  102.81   53.89   0
   9  -4   5   70.83   60.01   0
   9   4   3  194.57   50.24   0
   9   5  -6   51.82   52.98   0
  10  -5   4    1.83   59.76   0
  11   2   3   22.81   61.83   0
  12   3  -7   38.12   45.79   0
  13   1   0   83.66   50.00   0
   2   3  -1   27.93   26.20   0
   6  -3   6   -1.37   49.05   0
   6   5   1  298.40   39.28   0
   9   1   5   93.69   61.09   0
   9   3   4   11.20   50.21   0
   9   5   1  116.31   57.35   0
  10   2   4   48.38   59.79   0
  10   4   2  214.66   61.61   0
  10   5  -4  102.54   52.44   0
  10   5  -3  117.04   60.28   0
  11  -5   3  -11.79   53.72   0
  11   3   2   -0.78   61.02   0
  11   4  -6   63.34   52.56   0
  12   1   2   76.91   58.09   0
  13   2  -2   31.18   48.10   0
   3  -4   5  295.73   37.34   0
   3   1   4  163.25   23.79   0
   6  -2   6  255.19   43.51   0
   6   2   5  124.60   37.75   0
   6   4   3    5.19   38.70   0
   7   5  -6   22.40   50.31   0
   8  -5   5   73.57   58.18   0
   8   5  -6  108.14   51.89   0
  10   3   3  204.89   62.66   0
  10   5  -2    0.71   56.70   0
  12   2   1   32.83   58.18   0
  13   0   0  -33.48   52.04   0
   3  -2   5 2862.05   38.27   0
   4   2   4  960.32   31.13   0
   4   4   1  221.85   29.13   0
   5   5  -3  601.76   37.92   0
   5   5  -2  481.28   36.90   0
   7   5   1   39.39   44.89   0
   8   3   4   89.20   46.85   0
   8   4   3   -0.12   48.11   0
   8   5   1  262.89   52.52   0
   9  -6   4  -31.67   57.01   0
   9  -3   5   24.92   57.17   0
   9   0   5  -11.06   62.01   0
   9   5  -5   70.36   55.22   0
   9   5   0  112.33   59.44   0
  10  -4   4  -39.55   63.23   0
  10   1   4  158.65   62.62   0
  11  -4   3   23.10   62.16   0
  11   1   3  -29.58   64.80   0
  11   4  -5  155.00   57.35   0
  12   3  -6   90.77   49.28   0
   3  -3   5   -5.00   32.49   0
   3   2   3 1134.81   27.15   0
   5  -6   5   90.17   50.75   0
   6  -6   5  106.18   54.12   0
   6   3   4  199.45   38.15   0
   6   5  -5   78.96   43.39   0
   7   4   3 1049.20   45.34   0
  10   4  -7   43.23   52.57   0
  10   4   1  162.30   60.25   0
  11   3   1   11.57   61.61   0
  11   4  -4  -15.80   57.31   0
  12  -1   2   40.16   56.54   0
  12   3  -5   88.02   51.55   0
  13   1  -2  -20.69   54.08   0
   4   0   5  736.88   30.48   0
   5   4   2   29.49   32.67   0
   7   3   4  429.83   42.59   0
   8   1   5  -36.84   50.13   0
   8   5  -5   74.67   54.55   0
   8   5   0   44.90   53.42   0
   9   2   4  201.49   55.03   0
   9   4   2  -53.85   52.32   0
   9   5  -4   17.89   53.82   0
  10  -3   4  166.49   62.62   0
  11   0   3   71.14   63.32   0
  11   2   2  122.03   60.97   0
  11   4  -3   16.70   58.97   0
  12   1   1   85.29   58.10   0
  12   3  -4  -62.43   56.80   0
  13   0  -1   22.22   49.77   0
   7  -5   5   84.77   58.80   0
   7   5  -5  243.62   50.53   0
   7   5   0  227.77   45.28   0
   8  -4   5   70.80   57.73   0
   9   3   3   34.93   48.64   0
   9   5  -3  224.34   56.73   0
  10   2   3  379.67   61.75   0
  10   3   2  126.47   60.57   0
  11  -1   3   -5.00   61.03   0
  13   1  -3 -138.59   46.52   0
   1   0   2   33.06   22.30   0
   4  -5   5  146.94   44.92   0
   6   1   5  142.98   39.81   0
   6   5  -4  435.05   42.28   0
   8   4   2  402.98   51.70   0
   8   5  -4  159.12   54.41   0
   9  -5   4  105.85   61.71   0
  10   4  -6   97.69   55.86   0
  10   4   0   51.22   60.51   0
  11   3   0  -34.84   62.78   0
  12   0   1 -152.63   57.87   0
  13   0  -2   93.72   51.34   0
   4   4   0  130.96   30.38   0
   6   4   2  570.52   40.49   0
   6   5  -3   -6.83   39.71   0
   6   5  -2  186.20   39.00   0
   7   5  -4   11.95   46.76   0
   8  -3   5   26.22   61.49   0
   8   2   4   48.51   49.12   0
   8   5  -3  165.55   53.43   0
   9   1   4  125.11   60.20   0
   9   4   1  152.43   59.68   0
  11  -5   2   82.03   59.46   0
  11   3  -7  -46.33   54.20   0
  12  -1   1  138.44   57.90   0
  12   1   0  -64.52   59.73   0
  12   2  -7   74.60   49.70   0
   3   3   1  822.24   26.26   0
   5   3   3  117.13   34.38   0
   6  -5   5   63.73   55.20   0
   7   4   2  114.27   45.38   0
   7   5  -3  237.69   46.80   0
   7   5  -2   15.55   46.76   0
   8   3   3   95.87   46.98   0
   9  -7   3  -22.00   59.24   0
  10  -5   3   40.19   64.10   0
  10   1   3  130.60   62.88   0
  10   4  -1   -7.67   60.72   0
  11   2   1  -42.50   60.21   0
  11   3  -1  104.57   61.31   0
  12  -2   1  -59.08   61.04   0
  12   2  -2   43.29   56.93   0
  13   0  -3  -19.32   50.60   0
   2  -2   4  889.33   31.30   0
   5  -5   5  422.87   51.03   0
   5   0   5  -24.69   35.45   0
   5   4   1  414.55   36.13   0
   7   0   5  136.39   48.30   0
   8  -6   4   24.63   59.37   0
   9  -4   4   72.70   58.76   0
   9   4  -7   76.23   53.15   0
  10   4  -5  -84.25   53.48   0
  11   3  -6   25.40   57.08   0
  12   2  -6   15.26   49.97   0
   2   2   1 2687.05   32.44   0
   3   0   4  101.50   26.50   0
   4  -4   5  384.60   39.22   0
   4   3   2  138.24   28.93   0
   6   0   5  360.94   38.59   0
   6   2   4  230.86   38.58   0
   6   3   3  781.36   40.18   0
   7   2   4  163.27   41.74   0
   7   3   3  270.94   42.12   0
   9   0   4   89.75   59.08   0
   9   3   2  113.50   48.30   0
   9   4   0   72.06   59.12   0
  10   2   2   34.15   61.62   0
  10   4  -4  180.61   57.88   0
  11  -4   2  -52.43   61.98   0
  12   0   0  119.93   57.21   0
  12   2  -5  140.99   54.67   0
   2  -5   4  121.27   39.36   0
   2   3  -4 1092.19   45.79   0
   2   3  -3  456.67   37.02   0
   4  -3   5  238.57   38.06   0
   4  -2   5    8.33   31.14   0
   5   4  -7  198.89   45.30   0
   8   1   4  508.49   49.49   0
   8   4   1  194.87   48.21   0
   9  -3   4   90.50   60.93   0
  10  -4   3  176.74   59.30   0
  10   0   3   43.87   60.62   0
  10   3  -8    5.12   52.25   0
  11  -1   2  142.64   63.87   0
  11   1   1  194.60   63.65   0
  11   2   0  133.92   61.27   0
  11   3  -5   32.32   54.53   0
  11   3  -4   72.01   58.48   0
   6  -4   5  297.89   53.14   0
   6   4   1  193.15   42.06   0
   7   4   1  251.89   45.82   0
   9   4  -6   11.06   56.10   0
  10   3   0  318.90   61.59   0
  11  -6   1    3.55   54.40   0
  11  -2   2   64.03   58.88   0
  12  -1   0  158.27   57.62   0
  12   1  -2  -67.90   55.08   0
   2  -3   4  454.18   33.47   0
   2   0   3  530.85   27.42   0
   4   2   3 1468.65   33.10   0
   5  -4   5   54.94   41.93   0
   6  -7   4   83.18   56.35   0
   8  -5   4  241.80   59.00   0
   8   4  -7  -18.63   51.92   0
   9  -6   3   57.70   57.96   0
   9   4  -1    0.76   57.84   0
  12  -3   0   42.61   61.29   0
  12  -2   0  199.79   53.78   0
  12   0  -1  123.29   55.47   0
   2  -4   4  121.89   36.18   0
   4   4  -5  594.05   40.71   0
   5  -3   5  148.08   40.93   0
   5  -2   5   46.89   37.69   0
   6  -3   5  344.88   45.32   0
   7   1   4   88.54   43.68   0
   8   2   3   65.55   46.14   0
   8   3   2  253.52   47.97   0
   8   4   0  -21.77   51.43   0
   9   1   3  328.30   55.14   0
   9   3   1  363.30   49.62   0
   9   4  -5   50.64   54.37   0
  10  -6   2   88.37   60.82   0
  10   1   2   -7.77   59.56   0
  10   2   1  227.37   59.61   0
  11   0   1  102.01   63.93   0
  11   2  -8   66.60   51.09   0
  12   1  -7  -90.40   47.90   0
  12   1  -3  -91.64   53.70   0
   3   2   2 1755.51   29.37   0
   5   1   4   34.34   33.78   0
   7  -6   4   21.93   57.59   0
   8   0   4  245.47   50.92   0
   9   2   2  165.41   48.78   0
   9   4  -4  -50.99   56.92   0
  10   3  -7   37.13   53.44   0
  10   3  -1  159.21   58.49   0
  11  -5   1  208.21   61.40   0
  12  -1  -1 -180.68   61.76   0
  12   1  -6  168.46   50.22   0
   3   1   3 3444.87   32.79   0
   4   4  -4    1.93   35.39   0
   5   3   2   -4.81   34.27   0
   6   1   4  347.62   37.92   0
   6   4  -7   59.43   48.18   0
   7   4  -7  271.12   50.25   0
   7   4   0  240.47   45.24   0
   8  -7   3  104.64   58.99   0
   8  -4   4  -37.02   62.41   0
   8  -1   4   47.37   55.74   0
   9  -5   3   20.54   58.88   0
  10  -5   2   81.24   65.03   0
  11  -1   1   40.92   64.91   0
  11   2  -7    2.42   53.65   0
  11   2  -2   -5.58   58.45   0
  12   0  -2    9.50   53.90   0
   2   1   2 3082.06   33.39   0
   3   3   0 2118.61   32.79   0
   4   4  -3  741.02   35.62   0
   5   2   3   93.98   34.19   0
   6   3   2  386.35   40.44   0
   6   4   0  679.59   39.89   0
   7   2   3   33.07   42.01   0
   8  -3   4  145.29   55.78   0
   8   4  -6  123.20   51.31   0
   8   4  -1  187.76   49.71   0
   9   0   3  251.03   58.23   0
  10   3  -6   -8.69   52.96   0
  10   3  -2    8.84   59.01   0
  11  -3   1   20.74   66.34   0
  11  -2   1   79.76   60.34   0
  12  -4  -1   77.51   56.58   0
  12  -3  -1   60.78   60.57   0
  12  -2  -1   64.12   55.78   0
   4   0   4 1076.29   32.29   0
   5   4  -6  192.51   43.93   0
   6   2   3 1002.26   39.45   0
   7   0   4  304.87   46.23   0
   8   3   1   17.73   46.39   0
   9  -7   2  -14.48   62.74   0
   9   3   0   34.55   53.85   0
  10  -7   1  -47.88   62.41   0
  10  -1   2   65.81   63.57   0
  10   1   1   64.24   60.59   0
  10   2   0    4.12   58.69   0
  10   3  -5   41.35   57.12   0
  11   0   0   86.68   60.19   0
  11   2  -6  138.31   55.73   0
  11   2  -5   21.75   56.52   0
  12  -1  -2   10.82   60.09   0
  12   0  -3   43.51   50.32   0
   3  -6   4   24.23   44.57   0
   4   3   1   60.07   29.42   0
   6  -6   4  282.27   57.09   0
   7  -5   4  124.10   54.82   0
   7   4  -1  100.58   45.37   0
   8   1   3   71.13   45.98   0
   8   4  -5  111.64   52.95   0
   9  -4   3   43.08   61.00   0
   9  -1   3   33.05   59.53   0
   9   3  -8  110.48   50.77   0
  10   2  -9   77.88   50.33   0
  11  -6   0  168.59   55.73   0
  11   1  -9   -3.12   51.23   0
  12   0  -4  -47.32   55.70   0
   6   0   4   21.81   40.11   0
   6   4  -1  499.74   40.41   0
   7   4  -6   32.56   49.59   0
   8   4  -4   -6.45   50.86   0
   9   1   2  198.24   49.98   0
   9   2   1   27.53   47.60   0
  12  -2  -2  100.59   58.46   0
  12   0  -7  -32.91   46.44   0
   5   0   4  940.43   35.33   0
   6   4  -6  244.38   42.79   0
   7  -1   4  295.74   45.98   0
   8  -6   3  -35.50   61.11   0
   9   3  -1  254.51   53.82   0
  10   2  -1   40.59   57.55   0
  11  -1   0    5.11   64.04   0
  11   1  -2  124.02   60.40   0
  12  -4  -2   89.21   58.62   0
  12  -3  -2   14.44   55.64   0
   5   4  -5  194.81   39.28   0
   7   1   3  608.30   42.16   0
   7   3   1  825.24   44.95   0
   7   4  -5  160.46   49.41   0
   8  -8   2   18.39   57.55   0
   8   3   0  252.26   48.70   0
   9  -6   2  -65.29   61.45   0
  10  -8   0   98.84   54.49   0
  10  -6   1  -57.64   64.35   0
  10   0   1   34.50   58.41   0
  10   1   0   10.23   61.44   0
  10   2  -8   86.85   53.34   0
  11  -3   0   74.99   61.33   0
  11  -2   0   63.25   64.07   0
  11   0  -1   69.69   61.09   0
  11   1  -8  -40.42   53.12   0
   4  -6   4  390.70   48.74   0
   5  -6   4   21.46   51.70   0
   5   3   1  175.36   35.78   0
   5   4  -4  553.99   40.66   0
   5   4  -3   34.73   36.23   0
   6  -5   4   24.75   53.69   0
   6   4  -5  147.42   42.76   0
   7  -7   3  156.30   58.06   0
   7   2   2  683.28   44.79   0
   7   4  -4  307.93   44.75   0
   9  -8   1   22.10   59.54   0
   9   0   2  -69.62   58.24   0
   9   3  -2    2.48   56.14   0
  10   2  -2  136.58   59.75   0
  11   0 -10    9.36   49.28   0
  11   1  -7   97.24   58.77   0
  11   1  -3  107.49   56.83   0
  12  -2  -3  -56.76   57.59   0
  12  -1  -4   39.28   49.80   0
   1  -3   3  504.43   38.24   0
   3   3  -1 1703.32   33.17   0
   4  -1   4  124.21   30.26   0
   4   2   2   57.20   29.40   0
   6  -1   4  -11.94   39.62   0
   6   4  -4  363.25   42.39   0
   6   4  -3  126.13   40.15   0
   8  -5   3   13.60   62.90   0
   8   3  -8   47.73   52.83   0
   9   2   0  240.24   49.34   0
   9   3  -6  146.63   56.22   0
  10  -5   1  -62.98   64.33   0
  10  -1   1   83.63   59.49   0
  10   2  -7   25.00   56.25   0
  11  -1  -1  101.89   64.49   0
  11   1  -6  106.26   55.17   0
  11   1  -4 -134.81   51.92   0
  12  -3  -3  140.40   58.23   0
  12  -1  -5  -19.61   53.36   0
   2   2   0 5602.21   43.03   0
   3  -5   4  265.35   39.82   0
   6   1   3    8.42   38.37   0
   8  -1   3  126.12   50.47   0
   8   1   2  188.61   45.88   0
   8   2   1  276.19   45.31   0
   9  -5   2  276.57   63.06   0
   9   1   1  188.59   48.32   0
   9   3  -5  -78.34   57.82   0
  10  -2   1  106.13   64.17   0
  10   1 -10   91.00   54.53   0
  10   2  -3   75.76   56.92   0
  11   0  -2  -43.07   61.84   0
  12  -4  -3   -1.36   51.16   0
  12  -2  -4  -15.45   53.89   0
   3  -3   4  294.90   33.68   0
   4   3   0 2512.52   35.88   0
   5   1   3  817.26   35.00   0
   6   2   2   75.92   39.77   0
   7   3   0   16.91   42.40   0
   8  -4   3  211.24   57.27   0
   8  -2   3  111.07   57.50   0
   8   3  -1   38.54   49.21   0
   9   2  -9  -14.82   56.77   0
  10  -7   0   80.16   59.66   0
  10  -3   1  -14.11   60.47   0
  10   0   0  142.12   59.92   0
  10   1  -1  157.97   57.94   0
  10   2  -6  111.58   54.98   0
  11  -2  -1    3.48   65.49   0
  11   0  -9   36.19   52.84   0
   2  -1   3  573.66   27.21   0
   3  -4   4  463.22   36.35   0
   3   0   3  172.27   27.30   0
   5  -5   4  184.08   43.86   0
   6  -3   4  294.88   45.50   0
   7   0   3  402.27   41.89   0
   8  -9   1   92.32   57.47   0
   8  -7   2  122.67   60.17   0
   9  -9   0  141.95   57.47   0
   9  -2   2  103.22   60.26   0
   9   2  -1  245.27   56.38   0
  11  -4  -1   76.27   61.16   0
  11  -3  -1  132.88   64.51   0
  11   0  -3   58.72   60.25   0
  12  -3  -4    8.01   53.20   0
  12  -2  -5   67.28   54.07   0
   3   2   1   28.55   24.88   0
   4  -5   4  435.77   41.56   0
   7  -6   3  120.75   55.17   0
   8   3  -7  177.62   51.75   0
   8   3  -2  295.42   52.37   0
   9  -7   1  134.53   63.10   0
  10   1  -9   72.09   57.35   0
  11  -7  -2  105.17   54.58   0
  11  -1  -2  125.79   60.58   0
  12  -4  -4   44.63   51.29   0
  12  -2  -6   80.68   50.98   0
   5  -4   4  352.70   44.30   0
   5  -3   4  158.10   39.43   0
   5   3   0   -0.31   35.30   0
   6  -7   3  240.66   56.99   0
   7   2   1   31.43   45.84   0
   7   3  -8  219.16   51.83   0
   8   0   2  775.84   46.20   0
   9   0   1  382.63   51.39   0
  10  -8  -1  -17.09   60.44   0
  10  -6   0  147.85   60.82   0
  10  -1   0   11.63   59.47   0
  10   1  -2   25.85   56.20   0
  11   0  -8  -87.55   53.69   0
  11   0  -4  158.30   55.56   0
  12  -3  -5   88.65   48.06   0
   4  -4   4   -2.65   39.61   0
   4  -3   4  287.99   35.76   0
   6   0   3  725.66   41.19   0
   7  -8   2 -118.20   58.15   0
   7   1   2  402.70   41.72   0
   7   3  -1  211.30   41.32   0
   8   2   0   16.56   44.42   0
   8   3  -6   21.86   53.64   0
   9   2  -8  113.68   57.27   0
   9   2  -2   -7.45   55.77   0
  10   0  -1   88.64   57.77   0
  11  -2  -2  169.18   61.42   0
  11  -1  -3  135.90   63.24   0
  11   0  -7  -47.61   53.70   0
  11   0  -5  -99.17   54.13   0
  12  -4  -5   70.44   51.32   0
   3   1   2  244.75   25.31   0
   7  -5   3  -19.33   58.65   0
   8  -6   2   83.79   59.75   0
   8   1   1  288.28   44.89   0
   8   3  -5  412.60   53.58   0
   9  -6   1  -24.30   58.22   0
  10  -2   0   53.77   59.30   0
  10   1  -8  169.95   56.23   0
  10   1  -3   54.24   56.77   0
  11  -5  -2  127.41   60.78   0
  11  -3  -2   -8.59   63.82   0
  11  -1 -10   77.38   46.00   0
   4   0   3  150.58   31.34   0
   4   3  -1   45.95   32.77   0
   5   0   3  485.30   37.07   0
   8  -1   2   68.08   47.64   0
   9  -8   0   85.65   61.55   0
   9  -1   1   42.76   57.18   0
   9   2  -7   66.75   55.81   0
   9   2  -3  359.14   56.37   0
  10  -4   0   75.91   58.67   0
  10  -3   0  -42.25   62.54   0
  10   1  -4   82.33   57.91   0
  11  -4  -2  111.92   55.35   0
   6   1   2  269.69   37.79   0
   6   2   1  675.28   39.61   0
   6   3  -8   96.11   49.24   0
   6   3  -1   56.04   42.07   0
   7   3  -7   71.90   49.22   0
   7   3  -2  234.78   43.96   0
   8  -8   1  -10.51   57.42   0
   8  -5   2   85.88   61.14   0
   9   1  -1   10.00   49.57   0
  10  -7  -1  116.16   63.02   0
  10   0  -2   56.23   55.48   0
  10   1  -7   62.39   53.09   0
  11  -1  -9  153.32   48.66   0
  11  -1  -4   98.60   58.91   0
   4   2   1  324.53   31.19   0
   5   3  -1 2077.33   40.05   0
   6  -6   3   32.57   53.32   0
   6  -1   3  711.74   40.67   0
   8  -2   2   36.41   55.01   0
   8   2  -9   54.75   54.47   0
   8   2  -1  222.52   43.23   0
   9   0   0   35.74   48.89   0
   9   1 -10   51.24   54.01   0
   9   2  -6    2.28   57.43   0
  10   0 -10   46.77   53.48   0
  11  -6  -3 -147.54   59.80   0
  11  -1  -8   41.79   52.98   0
  11  -1  -5    2.56   53.23   0
   5  -7   3   12.04   52.17   0
   5   1   2  250.75   36.29   0
   7  -7   2   78.42   59.64   0
   7   0   2   -1.60   40.56   0
   7   2   0  327.89   41.79   0
   7   3  -6  182.01   51.49   0
   8   0   1  -17.58   44.93   0
   9  -9  -1  -10.35   62.27   0
  11  -5  -3   30.93   56.75   0
  11  -3  -3   81.94   57.92   0
  11  -2  -4  -29.07   60.98   0
  11  -1  -6    8.77   56.93   0
   2   0   2  147.54   25.57   0
   2   1   1  450.80   26.03   0
   7  -9   1   15.53   57.78   0
   7   1   1   88.01   39.12   0
   7   3  -5  152.79   44.13   0
   8   1   0  187.75   43.76   0
   9  -7   0   11.17   57.56   0
   9   1  -2  277.15   55.18   0
  10  -8  -2  133.14   57.92   0
  10   0  -3   25.71   55.24   0
  11  -4  -3   -1.98   57.76   0
  11  -2 -10  127.63   48.27   0
   3  -1   3  180.04   26.77   0
   5  -1   3   34.83   36.36   0
   6  -5   3  132.43   52.22   0
   6  -2   3   59.81   39.07   0
   6   3  -2  669.37   41.45   0
   8  -9   0  120.64   57.45   0
   8  -7   1  -31.92   57.15   0
   8   2  -2  307.30   46.55   0
  10  -5  -1    9.00   56.94   0
  10  -4  -1   61.48   65.73   0
  10  -1  -2  105.40   56.69   0
  10   0  -9  -29.30   54.03   0
  11  -3  -4   32.31   59.51   0
  11  -2  -5  133.33   58.64   0
   7  -1   2  245.03   42.97   0
  10  -9  -3   30.40   53.48   0
  10   0  -4 -112.99   55.20   0
  11  -6  -4   66.97   59.96   0
  11  -2  -9   86.72   49.37   0
   6   0   2  132.83   38.00   0
   8  -1   1  317.66   44.62   0
   9   1  -3  200.09   52.50   0
  11  -5  -4  219.25   54.24   0
  11  -4  -4   -7.71   55.55   0
  -1 -13  -3   -9.87   49.58   0
   1 -16   1   61.20   43.87   0
   1 -15  -1   33.34   52.55   0
   2  -5  -3  207.91   29.56   0
   4 -11  -2  193.86   54.77   0
   4  -4  -2  499.05   31.08   0
   5 -12   0  104.07   54.29   0
   5 -11  -1  120.14   51.96   0
   5  -8  -2   78.85   40.65   0
   5  -3  -1 1031.68   34.48   0
   6 -10   0  123.00   55.77   0
   7  -3   1  235.02   47.21   0
   9  -2   5   53.47   53.81   0
  -2  -7  -3   92.64   33.55   0
   0 -13  -3   22.47   49.52   0
   0  -5  -3  124.51   26.54   0
   2 -15   0   14.92   48.88   0
   3 -10  -3  -41.37   45.15   0
   4  -2  -1 1715.98   32.25   0
   6 -11   1  123.24   54.88   0
   6  -3   0  765.64   39.22   0
   7  -8   1   32.57   53.71   0
   8  -9   5  -57.58   48.39   0
   9  -3   5   45.65   53.97   0
  10  -2  10  -55.83   48.53   0
  -2 -12  -3  225.35   44.87   0
   0 -15  -1  111.02   54.87   0
   0  -3  -2   28.28   24.37   0
   1  -5  -3  274.34   27.03   0
   4 -12  -1  139.98   54.12   0
   5 -13   2   67.73   48.64   0
   6 -12   3  -41.95   47.39   0
   7 -10   3  154.60   53.18   0
   8  -8   4  -78.42   51.46   0
   8  -7   3  105.33   53.99   0
   9   1   7  105.64   53.28   0
   9   2   8    2.10   51.49   0
  -1 -14  -2    3.15   53.10   0
   0 -14  -2   46.30   57.30   0
   1 -12  -3  -33.01   49.46   0
   2 -14  -1  100.12   51.90   0
   2 -13  -2  -26.00   56.84   0
   3 -14   0  -46.76   49.31   0
   3  -9  -3   62.54   37.92   0
   3  -8  -3    5.95   36.28   0
   3  -7  -3  650.22   33.63   0
   3   0   0  230.50   26.95   0
   4 -10  -2  415.64   51.73   0
   6  -9   0   51.94   54.16   0
   7  -9   2 -139.86   55.67   0
   7  -7   1  264.38   53.14   0
   8  -6   3  -94.96   54.70   0
   1 -15   0  106.22   54.47   0
   2  -3  -2 1632.71   27.94   0
   4  -5  -2  418.16   35.55   0
   5 -13   3    7.20   45.46   0
   5 -11   0  188.75   55.59   0
   5  -4  -1  960.74   36.58   0
   7  -5   1   29.49   48.00   0
   8  -5   3  -44.56   55.09   0
   9  -1   6   10.51   52.11   0
  -1 -12  -3  135.05   44.63   0
   0 -12  -3  260.38   50.14   0
   2  -6  -3 4018.40   37.55   0
   4  -9  -2  -19.36   42.07   0
   4   3   3  994.86   38.85   0
   6  -8   0  160.27   53.95   0
   6  -4   0  524.02   37.91   0
   7 -10   4  -19.48   51.00   0
   8  -8   5  125.57   51.21   0
   8  -7   4  136.92   54.01   0
   8   2   6  316.39   48.10   0
   8   3   7  223.66   49.32   0
  -2 -11  -3  130.67   40.25   0
   1  -3  -2 1048.83   27.20   0
   3 -11  -2   39.41   53.92   0
   3  -4  -2  173.27   29.06   0
   4 -11  -1   79.52   56.35   0
   4  -6  -2  204.02   35.80   0
   6  -7   0  198.08   44.53   0
   6  -5   0  123.81   42.98   0
   7  -9   3  148.38   57.16   0
   7  -8   2  -53.54   54.80   0
   7   0   3  372.16   40.15   0
   8  -1   4   44.51   47.03   0
   9  -4   6  109.17   51.91   0
   9  -3   6  -59.51   51.13   0
   9  -2   6    0.28   50.67   0
   0 -15   0  -22.90   53.22   0
   1 -14  -1   64.97   53.04   0
   1 -13  -2  174.49   54.07   0
   2 -15   2  -57.41   47.16   0
   4  -8  -2  290.76   40.52   0
   4  -7  -2  635.87   38.39   0
   5 -12   2   97.51   51.59   0
   5  -8  -1  230.39   42.71   0
   5  -5  -1   72.62   37.06   0
   5  -2   0  573.89   34.40   0
   6 -11   3   11.38   50.16   0
   6  -6   0   14.51   41.89   0
   7 -10   5   -2.36   48.46   0
   8  -8   6 -150.84   54.10   0
   9   0   7    2.83   49.75   0
  -2 -13  -2   79.82   51.02   0
  -2  -8  -3  741.81   35.48   0
   1 -15   1   26.50   52.60   0
   1  -6  -3   16.09   28.59   0
   2 -14   0  -27.05   51.89   0
   2  -9  -3  497.97   35.37   0
   2  -8  -3  436.35   36.64   0
   2  -7  -3  524.71   33.22   0
   4  -3  -1  242.76   31.67   0
   5 -10   0  128.63   52.70   0
   5  -6  -1  102.29   39.10   0
   6  -9   1   29.83   54.06   0
   6  -2   1  282.02   35.83   0
   7  -7   2   21.53   51.16   0
  -2 -10  -3   51.23   36.58   0
  -1 -11  -3  228.00   41.25   0
   0 -13  -2  230.86   51.44   0
   0 -11  -3   28.55   40.25   0
   0  -6  -3  189.66   30.36   0
   2 -13  -1   16.87   55.45   0
   3 -14   2   41.32   51.50   0
   3 -10  -2  105.19   47.92   0
   3  -2  -1  150.27   26.00   0
   4  -1   0  253.00   27.77   0
   5 -11   1   37.51   55.99   0
   6 -10   2   -2.80   56.42   0
   7  -3   2   67.42   45.46   0
   8  -8   7  -17.33   45.30   0
   8  -7   5  102.56   49.62   0
   9  -5   8   -1.56   49.12   0
   9  -4   7  -55.69   49.82   0
   9   1   8  162.39   47.80   0
  -2  -9  -3 1170.01   37.61   0
  -1 -13  -2   96.27   53.80   0
   0 -14  -1   13.50   58.50   0
   4 -10  -1  -43.84   51.53   0
   5 -12   3 -111.64   48.22   0
   6 -11   4  -26.59   48.31   0
   7  -9   4   12.60   50.98   0
   7  -8   3   43.17   57.04   0
   7  -6   2   34.35   52.66   0
   7  -4   2  131.09   46.79   0
   8  -5   4  125.91   51.09   0
   8   0   5   51.39   48.30   0
   9  -5   9   64.61   45.05   0
   9  -3   7    2.66   47.68   0
   9  -2   7    1.26   47.68   0
  -1 -14  -1  187.52   55.69   0
   1 -15   2   -8.44   50.41   0
   1  -7  -3  611.75   31.59   0
   2   0   0 1500.56   30.31   0
   3  -5  -2  437.78   31.29   0
   5  -9   0  287.92   53.87   0
   6 -11   5   12.74   44.96   0
   6  -8   1  345.91   53.68   0
   7  -5   2  101.07   48.31   0
   8  -7   6   39.38   52.98   0
   9  -4   8   61.28   52.99   0
   0 -10  -3  622.26   37.82   0
   1 -14   0  202.03   54.26   0
   1 -12  -2   40.85   48.61   0
   1  -8  -3  914.51   34.06   0
   2 -14   1  -22.20   52.15   0
   3  -9  -2  220.67   39.21   0
   3   1   1 1140.64   29.90   0
   4 -12   1  179.16   51.02   0
   4 -11   0   36.57   54.07   0
   5 -12   4   88.91   53.38   0
   7  -9   5   11.65   52.03   0
   8  -6   5  126.10   48.74   0
  -1 -10  -3  222.64   36.96   0
   1 -13  -1  337.63   57.67   0
   3 -11  -1  129.20   54.05   0
   4  -9  -1  296.54   42.30   0
   4  -4  -1  124.47   32.11   0
   5 -11   2  113.58   55.23   0
   5 -10   1   91.10   51.23   0
   6  -9   2  -93.07   53.49   0
   6   1   3  -23.52   30.59   0
   7  -7   3   80.74   51.26   0
   7   2   5  194.34   38.09   0
   8  -7   7   88.18   52.41   0
   8   1   6  165.78   47.00   0
   9  -4   9  -37.79   48.96   0
   9  -3   8  129.59   49.03   0
  -1  -9  -3  222.24   36.01   0
  -1  -8  -3  451.82   33.15   0
   1 -15   3   29.65   46.14   0
   2 -13   0   75.69   54.31   0
   3  -8  -2   36.37   35.17   0
   3  -7  -2  -28.30   35.47   0
   3  -6  -2  764.98   34.24   0
   5 -12   5  154.31   46.42   0
   5  -8   0  278.75   41.88   0
   6  -6   1   51.17   41.54   0
   6  -4   1  201.33   36.44   0
   7  -9   6   62.66   46.87   0
   7  -8   4  138.79   54.44   0
   7   4   7   92.97   42.67   0
   8  -1   5  102.98   44.56   0
   9  -4  10   69.10   44.82   0
   9  -2   8   15.05   45.18   0
   9  -1   8   32.84   46.55   0
   9   1   9  -13.46   46.30   0
  -2 -12  -2   53.37   49.90   0
   0 -15   2   81.01   52.87   0
   0 -14   0   83.14   59.68   0
   0 -12  -2   -7.14   51.71   0
   2 -10  -2  110.57   43.79   0
   4 -12   2   69.97   51.87   0
   4  -8  -1  261.38   40.27   0
   5  -1   1  101.96   30.26   0
   7  -9   7  -46.87   43.95   0
   7  -6   3  189.57   50.66   0
   7   3   6  633.43   37.91   0
   8  -7   8  -60.18   46.14   0
   8  -6   6    1.39   49.43   0
   8   2   7  -26.46   45.79   0
   9  -3   9  -24.19   50.66   0
   9   2  10   54.38   45.21   0
  -1 -12  -2  366.41   49.35   0
  -1  -4  -2  293.35   32.54   0
   1 -14   1   44.71   54.48   0
   4 -10   0  160.49   51.83   0
   4  -5  -1  626.95   34.33   0
   5  -7   0   56.24   41.19   0
   5   2   3   98.31   29.37   0
   5   5   6  102.00   44.88   0
   6  -9   3  -15.72   55.88   0
   6  -8   2   -8.10   53.24   0
   7  -8   5  126.95   56.02   0
   8   3   8  137.85   45.27   0
   9   0   9   -5.06   49.03   0
  -3 -11  -2  104.79   44.17   0
   0 -13  -1   28.20   52.94   0
   2 -14   3  123.47   51.68   0
   2  -2  -1 1382.82   27.68   0
   3 -10  -1  225.88   48.41   0
   4 -11   1   77.53   52.96   0
   4  -7  -1   36.92   37.39   0
   4  -6  -1  565.25   36.04   0
   5  -9   1  290.03   53.39   0
   5  -6   0   90.13   39.19   0
   6 -10   5  -35.62   51.68   0
   6   2   4  245.39   35.27   0
   6   5   7   31.41   40.78   0
   7  -7   4  174.16   54.22   0
   7  -5   3   10.55   49.25   0
   7  -4   3   -5.70   47.77   0
   7   0   4  259.81   39.85   0
   8  -6   7  -41.54   53.07   0
   9  -3  10   81.57   47.73   0
   9  -3  11   -6.43   46.19   0
   9  -1   9   -7.18   47.93   0
  -1 -14   0  -17.76   56.13   0
   0 -15   3   71.72   50.10   0
   1  -4  -2   72.40   23.76   0
   3  -3  -1   10.77   26.71   0
   4 -12   3  -93.84   53.56   0
   4  -2   0   36.45   29.73   0
   4   0   1  276.39   26.18   0
   5 -10   2   51.37   52.94   0
   8   0   6   33.51   47.81   0
   9  -2  10   47.38   50.82   0
   9   1  10   47.04   45.96   0
  -2 -13  -1   14.12   52.89   0
  -1 -13  -1  151.01   54.61   0
   1 -13   0  -45.37   56.87   0
   1 -12  -1  -33.93   51.79   0
   2 -13   1  -19.59   53.41   0
   3 -11   0   86.04   54.27   0
   6 -10   6   -7.08   50.39   0
   6  -7   2   76.57   51.00   0
   6  -2   2   77.48   35.46   0
   7  -8   6   32.94   49.65   0
   9  -1  10  -18.35   47.58   0
   9   0  10    1.89   47.29   0
   0 -11  -2   63.78   40.73   0
   1 -14   2   80.34   54.24   0
   2 -14   4   60.98   45.62   0
   2  -8  -2  100.63   35.65   0
   4  -9   0   32.95   43.93   0
   5   3   4  970.40   35.16   0
   6 -10   7 -118.83   46.99   0
   6  -9   4  330.15   53.60   0
   6   3   5  173.20   35.03   0
   7  -8   7  178.44   50.11   0
   7  -7   5 -117.11   57.62   0
   7  -6   4   -6.63   50.17   0
   8  -1   6  144.13   44.94   0
   9  -2  11  -42.80   48.20   0
   9  -2  12   96.30   45.27   0
   0  -4  -2   32.91   25.17   0
   2  -7  -2  108.50   34.20   0
   2  -6  -2  -27.91   29.95   0
   3  -9  -1   -3.20   39.42   0
   3  -1   0 2208.36   29.70   0
   4 -12   4   -2.25   52.10   0
   4 -11   2   86.47   52.46   0
   5 -11   5  142.38   46.28   0
   5  -2   1  211.29   31.62   0
   6  -6   2  159.15   41.79   0
   6   4   6  516.52   38.45   0
   7  -8   8  111.65   50.89   0
   7   1   5  784.48   40.09   0
   8   1   7  -11.25   44.04   0
   9  -1  11  152.71   48.48   0
   9   0  11   86.72   46.73   0
   9   1  11    7.68   44.15   0
  -2 -11  -2  523.08   41.03   0
   4 -12   5   20.58   50.96   0
   4 -10   1   15.51   52.59   0
   5 -11   6  -19.56   47.50   0
   6  -5   2   30.82   39.50   0
   6  -3   2  518.95   36.01   0
   7  -5   4  161.20   49.66   0
  -3 -10  -2  116.71   41.37   0
  -1 -11  -2   67.68   41.68   0
   1 -14   3  172.18   52.20   0
   2 -13   2  165.68   52.74   0
   4  -8   0    1.07   40.20   0
   5 -11   7  -72.08   46.35   0
   5  -7   1  198.13   40.74   0
   6  -4   2  346.21   37.43   0
   7  -7   6    5.09   54.77   0
   7  -4   4  292.82   48.96   0
   8   2   8  117.36   46.00   0
   9   0  12  -72.50   44.86   0
  -2  -5  -2  431.02   41.05   0
  -1 -14   1   57.29   55.20   0
   0 -13   0  310.36   53.03   0
   0 -12  -1  118.82   53.17   0
   2 -10  -1  114.48   44.98   0
   3 -10   0  -17.16   49.52   0
   4 -12   6   41.49   46.04   0
   4  -3   0   36.58   29.39   0
   5 -10   4   92.71   57.99   0
   6  -9   6  -87.80   54.50   0
   6  -8   4   19.24   52.79   0
   6  -7   3  249.15   52.20   0
   7  -6   5  176.93   50.09   0
   7  -3   4  201.81   42.72   0
   8   0   7  356.84   47.24   0
   8   3   9  -26.03   44.93   0
   0 -14   2   42.74   51.56   0
   0 -10  -2  815.49   40.03   0
   1 -14   4  108.40   50.52   0
   1 -13   1  151.02   52.31   0
   1  -5  -2  149.94   23.84   0
   1  -2  -1  547.60   25.37   0
   3 -11   1   72.08   52.49   0
   3  -7  -1  884.91   37.14   0
   3  -5  -1  750.85   32.08   0
   4 -11   3  183.07   53.82   0
   4  -7   0  265.87   38.04   0
   5  -6   1   89.63   39.09   0
   7  -7   7   29.92   48.87   0
   7   2   6  124.00   38.11   0
   8  -2   7  -17.82   49.73   0
   8  -1   7  156.43   48.57   0
  -3 -12  -1   11.57   49.06   0
   1 -12   0  378.86   52.36   0
   2 -13   3    1.96   51.26   0
   3  -6  -1   29.29   33.23   0
   4  -9   1  199.15   46.80   0
   4  -4   0  296.20   32.90   0
   5  -9   3  -25.69   53.60   0
   5  -8   2  530.04   49.72   0
   5  -5   1   18.70   36.45   0
   5  -4   1   92.69   35.86   0
   6  -9   7   87.79   53.05   0
   6  -9   8  -65.65   51.29   0
   7  -7   8  155.75   50.25   0
   7   0   5  155.69   40.01   0
  -1 -12  -1    1.19   49.17   0
   1 -14   5    3.24   43.91   0
   1  -8  -2  303.42   31.74   0
   1  -6  -2  446.68   28.79   0
   4 -11   4   77.61   54.91   0
   4  -5   0   -8.86   33.79   0
   5 -10   5  -33.74   53.69   0
   6  -8   5   18.58   53.54   0
   6  -6   3  -12.13   47.06   0
   6   1   4  327.86   34.18   0
   7  -7   9   99.88   51.75   0
   7  -6   6   37.10   52.59   0
   7   3   7   64.75   38.27   0
   8   1   8   26.30   44.82   0
  -2 -12  -1  413.57   50.19   0
  -2 -10  -2  198.30   37.30   0
  -1 -10  -2   19.80   36.30   0
   0 -14   3   67.80   51.07   0
   1  -7  -2   57.81   30.28   0
   2  -9  -1  435.84   42.24   0
   2  -3  -1  971.82   26.57   0
   2   1   1  434.49   29.23   0
   3  -9   0  282.88   43.72   0
   4  -1   1  870.96   28.97   0
   6  -7   4   93.24   49.85   0
   7  -4   5  -16.82   49.48   0
   8  -4  11 -107.93   48.57   0
  -3  -7  -2   11.00   40.01   0
  -2 -13   0   18.86   54.48   0
  -1 -14   2   95.33   51.63   0
   0 -13   1  -50.76   53.06   0
   1 -13   2  -33.97   50.81   0
   3 -11   2  163.90   54.34   0
   5 -10   6   -7.26   49.99   0
   5  -7   2  244.62   40.21   0
   5  -1   2  413.67   32.09   0
   6  -2   3  145.04   34.72   0
   7  -6   7  -50.83   54.85   0
   0 -11  -1   14.00   43.87   0
   0  -5  -2   99.97   25.84   0
   2 -13   5   11.16   50.41   0
   3 -10   1  339.77   51.31   0
   3  -2   0 2434.26   32.12   0
   4 -11   5  -50.04   48.75   0
   4  -8   1  312.29   40.13   0
   5 -10   7   51.86   48.60   0
   5 -10   8    0.53   44.50   0
   5  -9   4  -21.26   53.40   0
   6  -8   6   98.28   54.04   0
   6  -3   3  128.15   38.10   0
   7  -5   6   -3.75   50.20   0
   8  -3   9   55.74   50.87   0
   8   3  10  181.68   45.82   0
  -3  -8  -2  658.77   40.71   0
   0 -14   4  -42.02   50.50   0
   0 -12   0   43.37   53.95   0
   2 -13   6  -31.53   45.66   0
   2  -8  -1   88.20   36.32   0
   4 -11   6  -28.88   46.72   0
   4 -10   3   83.97   50.48   0
   5  -8   3   -4.26   52.02   0
   6  -8   7  -65.80   55.10   0
   6  -6   4  235.92   52.41   0
   7  -6   8  -16.38   49.82   0
   7   1   6   39.61   37.27   0
   8  -3  10   13.86   49.71   0
  -1  -9  -2  325.03   35.01   0
   0 -14   5  -22.52   47.66   0
   0  -2  -1  668.70   29.49   0
   1 -13   3  166.18   49.62   0
   1 -12   1   31.91   50.33   0
   2 -10   0  251.28   42.75   0
   3  -8   0  244.86   37.51   0
   4 -11   7  -53.58   51.57   0
   4 -11   8   16.02   45.13   0
   4  -9   2  204.36   49.74   0
   5  -6   2   59.56   39.01   0
   6  -8   8   17.85   54.50   0
   6  -7   5  138.17   50.00   0
   6   2   5  150.40   35.35   0
   7  -6   9  -41.23   50.57   0
   7  -6  10  100.15   52.24   0
   8  -3  11   13.95   51.73   0
   8  -3  12  -14.03   46.39   0
   8  -2   9   76.78   48.02   0
   8   1   9  151.98   44.96   0
  -2  -9  -2   99.54   34.03   0
   0  -6  -2  388.70   28.79   0
   2  -4  -1   16.25   25.77   0
   3 -11   3   41.97   53.99   0
   4  -7   1   32.71   38.24   0
   6  -8   9   -8.96   46.84   0
   7  -5   7  103.76   50.38   0
   7  -4   6   96.85   49.34   0
   8  -1   9  111.78   48.90   0
   8   0   9  100.80   46.41   0
  -1 -11  -1  213.51   45.23   0
   0 -13   2   57.54   50.68   0
   2  -7  -1   22.08   31.99   0
   2  -1   0  519.05   24.18   0
   3   0   1 2788.70   33.52   0
   4  -2   1  118.61   30.50   0
   5  -5   2  108.16   37.16   0
   6  -7   6  -34.71   56.17   0
   6  -5   4   65.66   46.49   0
   7   0   6  209.31   40.58   0
   8  -2  10   44.88   46.43   0
   8   2  10  128.34   47.15   0
  -3 -11  -1   99.54   44.61   0
  -1 -14   4   83.62   48.27   0
   1 -13   4   -0.89   50.65   0
   2  -6  -1  772.77   30.93   0
   2  -5  -1  962.14   30.12   0
   3 -10   2  -21.08   52.32   0
   3  -9   1  264.26   42.43   0
   3  -7   0   54.12   35.76   0
   5  -9   6 -136.75   54.14   0
   5  -8   4  142.18   52.62   0
   5  -4   2  393.73   35.75   0
   5  -3   2  -18.61   33.06   0
   7  -5   8   34.48   51.63   0
   7   2   7  153.61   38.62   0
   8  -2  11  115.02   50.46   0
   8  -2  12   93.91   52.60   0
   8  -2  13   58.95   46.70   0
   8  -1  10   38.46   46.42   0
  -2 -13   1   49.70   53.34   0
  -2 -11  -1  213.90   41.46   0
  -1 -14   5   10.12   49.26   0
  -1  -8  -2   97.52   32.94   0
   1 -13   5  -24.59   52.19   0
   3 -11   4  129.03   50.43   0
   3  -3   0   48.56   27.30   0
   4 -10   5  128.52   58.32   0
   4  -9   3  164.49   51.98   0
   4  -8   2   -7.52   39.54   0
   4  -6   1   16.84   36.08   0
   5  -9   7   -7.14   51.32   0
   6  -6   5   58.99   50.55   0
   7  -5   9 -124.20   52.60   0
   7  -4   7  -63.50   51.75   0
   8   1  10   35.15   47.80   0
  -2  -8  -2  200.57   33.91   0
  -2  -6  -2  504.36   34.21   0
  -1 -14   6    9.89   42.36   0
   1 -13   6   84.94   47.01   0
   1 -13   7    5.92   46.33   0
   2  -9   0  375.73   40.85   0
   4  -3   1   36.72   29.88   0
   5  -9   8   39.85   52.41   0
   5  -9   9  -44.48   49.60   0
   5   2   4 1462.80   35.24   0
   6  -7   7  -40.65   55.18   0
   6   3   6   84.54   35.41   0
   7   3   8  121.03   39.43   0
   8  -1  11  101.91   48.18   0
   8  -1  14   -0.95   46.87   0
  -3 -12   0  136.10   51.41   0
  -2 -12   0  127.55   52.88   0
  -2  -7  -2 1165.66   36.79   0
  -1 -13   2   14.38   57.80   0
   0 -13   3   97.09   49.06   0
   1  -3  -1 2620.50   31.00   0
   2 -10   1  107.14   47.68   0
   3 -11   5   85.47   52.48   0
   3  -5   0  997.05   33.50   0
   3  -4   0  255.31   29.67   0
   4 -10   6  -45.88   54.34   0
   4  -5   1  690.66   34.60   0
   4  -4   1  339.36   33.22   0
   6  -7   8  120.39   53.87   0
   6  -7  11 -110.92   48.14   0
   6  -3   4  285.30   38.89   0
   8  -1  12  -64.46   48.91   0
   8  -1  13   86.88   48.97   0
   8   0  11   94.09   47.50   0
   8   2  11  139.90   45.07   0
  -4 -10  -1   54.89   43.85   0
   0 -11   0  107.62   44.28   0
   1  -8  -1   31.75   33.67   0
   4 -10   7   49.49   48.56   0
   4 -10   9  150.03   49.71   0
   4   0   2 3000.25   34.77   0
   6  -7   9   43.18   49.33   0
   6  -7  10  -42.28   49.14   0
   6   1   5   78.93   35.00   0
   7   1   7   71.50   38.31   0
   7   4   9   -5.08   42.91   0
   8   1  11  124.02   47.51   0
   8   3  12   91.25   45.46   0
   0 -13   4  116.85   52.54   0
   3 -11   6   42.40   50.74   0
   3 -11   7   66.54   52.04   0
   3  -8   1   64.46   37.70   0
   4 -10   8  -43.48   46.78   0
   4  -9   4  -37.76   50.48   0
   4  -7   2  121.88   38.92   0
   6   4   7  434.38   38.31   0
   6   5   8  195.55   40.97   0
   8   0  12   60.15   47.35   0
   8   0  13  -19.76   48.52   0
   8   2  12   24.63   47.86   0
   1 -12   3  -43.53   49.59   0
   2  -8   0  126.00   34.63   0
   3 -11   8   61.08   48.22   0
   3  -9   2   83.40   45.40   0
   4  -8   3  189.30   43.50   0
   5  -5   3  124.51   37.62   0
   6  -6   7  103.44   54.23   0
   7   0   7   55.56   39.42   0
   8   1  12  -63.64   45.43   0
   8   1  14   50.56   47.74   0
  -2 -13   2   84.66   54.87   0
  -1 -13   3    4.97   55.79   0
  -1 -12   1  209.28   53.10   0
   0 -13   5  100.55   53.78   0
   1  -7  -1   45.75   31.37   0
   5  -8   7  281.91   54.01   0
   5  -1   3   46.56   32.07   0
   6  -4   5  286.08   42.30   0
   8   1  13   38.91   45.08   0
   8   2  13   27.62   45.29   0
   0 -13   6   86.22   51.13   0
   0 -13   7  105.21   46.72   0
   3 -10   4  121.52   52.24   0
   4  -9   5  -39.91   50.92   0
   5  -8   8   78.18   52.75   0
   5  -8  10  -34.04   54.09   0
   5  -7   5  -44.49   51.94   0
   5  -6   4    3.57   41.82   0
   5  -4   3   18.71   35.17   0
   6  -6   8 -157.83   54.52   0
   6  -6  12   16.15   51.10   0
   6  -5   6   68.64   50.14   0
   7   2   8   -6.59   41.16   0
  -3 -10  -1   63.73   41.43   0
  -2 -10  -1   66.68   37.77   0
  -1 -11   0  238.35   46.86   0
   1  -4  -1  640.54   25.03   0
   2 -10   2  121.71   48.33   0
   2  -9   1   29.18   41.72   0
   3  -7   1  423.70   36.58   0
   4  -6   2   82.84   35.65   0
   5  -8   9   77.55   53.17   0
   5  -3   3  570.47   36.78   0
   5  -2   3  166.88   34.94   0
   5   3   5   28.06   33.29   0
   6  -6   9   55.81   54.25   0
   6  -6  10  204.05   51.98   0
   6  -6  11   66.88   53.86   0
   6  -3   5  378.95   40.62   0
  -1 -13   4   93.48   51.13   0
   1 -12   5  -33.67   54.11   0
   1  -9   0  119.29   36.65   0
   1  -6  -1  599.02   28.92   0
   1  -5  -1   27.71   26.62   0
   2  -7   0  803.03   34.43   0
   2  -2   0 1654.60   27.83   0
   3 -10   5  -43.32   55.59   0
   3  -1   1  210.70   23.80   0
   4  -9   6   -4.51   55.09   0
   4  -8   4   -2.13   50.39   0
   6  -2   5  -31.69   40.17   0
   6   2   6   84.82   34.16   0
   7  -3  13   62.56   50.98   0
   7   1   8  119.68   43.79   0
  -2 -13   3   16.64   53.20   0
  -2 -12   1   22.01   53.55   0
   0 -11   1  259.46   46.91   0
   3  -9   3  271.57   48.23   0
   3  -8   2  138.91   38.37   0
   4  -9   7  108.21   55.54   0
   4  -9  10   -6.91   49.81   0
   4  -7   3  202.47   39.76   0
   4  -5   2  247.55   33.71   0
   4  -1   2  118.83   26.71   0
   5  -7   6   81.50   51.64   0
   6  -5   7   66.66   49.73   0
   7   0   8  168.81   44.09   0
   7   3   9  120.88   42.75   0
  -2 -11   0  173.12   47.05   0
  -1 -13   5  -14.64   51.47   0
  -1  -9  -1  291.64   35.83   0
   0 -12   3  132.81   53.54   0
   1 -12   6  -29.66   52.08   0
   1 -12   8  -13.27   47.28   0
   3 -10   6  275.51   58.14   0
   3 -10  10    2.48   50.62   0
   3  -6   1  869.21   35.00   0
   4  -9   8  102.58   52.80   0
   4  -9   9  -45.24   52.70   0
   4   3   4   52.14   31.55   0
   5  -5   4  195.03   38.46   0
   7   4  10  134.08   43.64   0
  -3 -12   1   75.10   55.62   0
  -1 -13   7  -18.27   50.34   0
  -1 -12   2  143.30   51.58   0
   2 -10   3   10.70   51.74   0
   2  -6   0  692.06   32.12   0
   3 -10   7   81.63   54.94   0
   3 -10   8   55.78   52.23   0
   3 -10   9   16.19   54.13   0
   4  -4   2   11.73   32.72   0
   5  -7   7   -9.03   54.21   0
   5  -7  12  -24.99   47.37   0
   5  -6   5  133.40   44.58   0
   6  -5   8  106.64   51.85   0
   7  -2  14 -102.74   51.50   0
  -3 -11   0  222.24   49.91   0
  -2 -13   4   -9.89   52.50   0
   2  -8   1  620.26   37.79   0
   3   1   2  262.51   26.10   0
   4  -3   2  762.77   32.20   0
   4  -2   2  213.62   30.00   0
   5  -7   8   42.78   58.72   0
   5  -7  11   88.64   52.75   0
   6  -5   9    1.25   56.46   0
   6  -5  12   44.11   54.85   0
   6  -3   6  -13.12   40.90   0
   7  -2  13   -3.16   58.06   0
   7  -1   9  114.14   45.87   0
   7   2   9   62.57   43.68   0
   0 -12   4   92.66   51.81   0
   1  -8   0 1199.62   36.32   0
   2  -9   2  442.34   46.07   0
   2  -5   0   48.08   28.67   0
   2  -3   0 4146.48   33.93   0
   3  -5   1  173.90   33.03   0
   3  -2   1 1236.81   28.64   0
   4  -6   3   26.81   37.63   0
   5  -7   9  111.09   56.12   0
   5  -7  10   94.27   53.07   0
   5  -4   4  380.61   36.10   0
   5   4   6  542.29   37.44   0
   6  -5  10   29.18   51.72   0
   6  -5  11  -30.97   52.33   0
   6   3   7  693.18   36.91   0
   7  -2  12  193.13   50.88   0
   7  -1  15 -141.86   49.93   0
   7   0   9  138.73   46.41   0
   7   1   9   -3.18   45.71   0
  -2 -13   5   29.69   51.04   0
   0  -7  -1  126.30   28.33   0
   2  -4   0 1533.17   30.23   0
   3  -8   3   43.21   42.67   0
   3  -7   2  291.89   37.15   0
   4  -7   4  -58.23   40.50   0
   6  -2   6  217.06   41.19   0
   7  -1  10  -35.06   51.89   0
  -2 -13   6   58.70   51.03   0
  -2  -9  -1  270.02   37.59   0
  -1 -12   3  170.19   54.94   0
  -1 -10   0   -0.74   39.79   0
   0 -12   5   14.87   49.84   0
   2 -10   4   76.69   52.25   0
   3  -9   5  144.34   54.12   0
   3  -3   1  142.88   28.01   0
   5  -5   5  400.85   39.23   0
   5  -3   4  130.32   33.94   0
   6  -4   8  273.84   53.13   0
   7  -1  14  -84.90   54.05   0
   7   0  16  113.39   47.00   0
   7   3  10   88.37   43.43   0
   0 -12   6   76.43   54.02   0
   0 -12   8   72.71   51.00   0
   4  -8   7   17.25   55.27   0
   4  -8  11   72.30   53.45   0
   5  -6   7  -14.97   54.25   0
   5  -6  13   92.01   53.36   0
   5  -2   4  217.02   34.78   0
   5  -1   4 1400.25   34.70   0
   6  -3   7  176.87   45.10   0
   7  -1  11   -6.29   49.41   0
   7  -1  12    8.57   50.93   0
   7  -1  13  -43.08   53.26   0
   7   0  10   -9.67   49.65   0
   7   4  11  -14.26   44.55   0
  -3  -9  -1   18.75   38.76   0
   0 -12   7  -24.13   53.60   0
   0  -6  -1   23.20   29.01   0
   1  -1   0 1583.19   30.20   0
   2 -10   5   60.35   54.96   0
   2  -7   1  285.39   36.62   0
   3  -9  11   55.50   51.59   0
   4  -8   8   30.27   57.36   0
   4  -8   9   11.03   54.78   0
   4  -8  10 -153.76   53.77   0
   4  -7   5  164.67   47.21   0
   4  -5   3  647.89   36.69   0
   6  -4   9   -9.25   51.57   0
   6   4   8  -13.34   36.60   0
   7   0  15  234.50   53.28   0
   7   1  10  317.51   47.42   0
   7   2  10   -6.74   44.66   0
  -3 -12   2    3.60   57.06   0
   2  -9   3   11.69   46.87   0
   3  -9   6  114.94   52.10   0
   3  -6   2  244.45   38.19   0
   4  -6   4  395.26   42.06   0
   5  -6   8  268.93   52.02   0
   5  -6  12   53.54   50.43   0
   5  -4   5   26.88   39.88   0
   6  -4  10  130.12   52.21   0
   6  -4  11  -36.00   52.09   0
   6   2   7   23.23   36.18   0
   7   0  11   84.97   51.19   0
  -2 -11   1  237.55   50.31   0
  -1 -12   4   75.57   51.91   0
   0  -5  -1 2632.06   34.90   0
   0  -4  -1   14.20   25.71   0
   2   0   1  493.42   24.59   0
   3  -9   7 -162.27   57.83   0
   3  -9  10  122.94   49.32   0
   3  -8   4  117.31   43.53   0
   5  -6   9   27.80   56.93   0
   5  -6  10  123.51   59.51   0
   5  -6  11   51.27   53.38   0
   5  -5   6  -21.94   44.60   0
   6  -3   8  -37.29   51.12   0
   7   0  12  -60.14   48.39   0
   7   0  13  144.67   50.16   0
   7   0  14    0.79   50.84   0
   7   3  11  265.44   47.36   0
  -2 -12   3  103.11   56.06   0
  -2 -10   0  257.77   42.18   0
   2 -10   7    9.13   55.58   0
   2 -10   9 -130.12   55.23   0
   3  -9   8   18.82   57.04   0
   3  -9   9  122.97   52.68   0
   3  -7   3   94.93   38.17   0
   4  -7   6   64.21   52.63   0
   4  -4   3  638.22   34.20   0
   4   0   3  154.57   29.36   0
   5  -5  14   88.01   51.36   0
   7   1  11   56.41   48.10   0
   7   1  15  -19.86   54.59   0
   7   2  11   47.20   45.63   0
   7   4  12   38.42   46.62   0
  -1 -12   5   49.87   51.85   0
  -1 -12   9   57.05   46.87   0
  -1 -11   2  465.39   53.55   0
   2 -10   8  106.57   51.27   0
   6  -3   9  116.64   53.51   0
   7   1  12  114.84   47.65   0
   7   1  14  -98.60   51.88   0
   7   2  16   20.64   50.86   0
  -1 -12   6  122.26   54.05   0
  -1 -12   8   72.12   53.02   0
   0 -11   4  -41.95   51.15   0
   1  -9   2  -11.97   44.18   0
   1  -8   1   79.43   35.66   0
   1  -6   0   93.73   31.57   0
   2  -9   4  494.66   51.26   0
   3  -8   5  197.65   51.04   0
   4  -7   7  181.76   54.13   0
   4  -7  12   54.93   53.55   0
   4  -3   3   60.63   32.34   0
   7   1  13   46.00   50.12   0
   7   2  12  176.91   50.24   0
  -1 -12   7   62.23   52.77   0
  -1 -10   1  470.09   42.93   0
  -1  -9   0  336.07   37.64   0
   4  -6   5  139.26   40.55   0
   4  -5   4  446.43   37.04   0
   5  -5  13  -59.70   54.04   0
   5  -4   6  322.92   39.22   0
   6  -2  15  -60.94   52.26   0
   7   2  15   13.29   47.97   0
   0 -11  10   99.53   46.68   0
   3  -8  12  117.78   49.46   0
   3   0   2  519.27   28.24   0
   4  -7   8  103.81   53.87   0
   4  -7   9  -82.05   55.49   0
   4  -7  10   54.27   57.21   0
   5  -5   8  -10.37   52.44   0
   5  -5  12   47.58   55.23   0
   5  -2   5   33.65   32.63   0
   2  -9   5   46.39   52.61   0
   2  -8   3  205.50   38.37   0
   2  -7   2  373.95   35.70   0
   3  -8   6  -55.15   53.95   0
   3  -7   4  278.90   40.26   0
   5  -5   9  150.94   53.00   0
   5  -5  11   91.34   57.38   0
  -7   0   0   67.25   50.16   0
  -5   2  -1  163.32   36.63   0
   0  -4   1  348.78   27.41   0
   0  -3   1  439.50   25.26   0
   1   1 -10  152.21   27.56   0
   1   1  -3   75.31   28.43   0
   2  -1 -12  311.41   32.12   0
   3  -2 -10  336.68   36.30   0
  -5  -3   3  391.49   33.78   0
  -3  -8   2  769.92   30.37   0
  -2   3  -7  125.82   27.76   0
   0  -8   0  198.72   27.76   0
   0   2  -3  305.58   28.90   0
   2   0  -9  528.60   33.10   0
   3  -8  -5  339.08   34.86   0
  -6  -5   3   31.58   32.33   0
  -6  -4   3  154.85   34.41   0
  -5  -6   3  436.67   30.57   0
  -2   3  -6  325.74   30.47   0
  -2   3  -4  427.64   30.06   0
   0  -5   1 1344.88   26.10   0
   0   2  -8  140.85   30.27   0
   1  -4   0  287.19   25.78   0
   1  -3   0 2932.02   35.24   0
   3  -2  -9  180.94   42.48   0
  -4  -6   3  231.09   30.15   0
  -4   3  -5  193.18   32.67   0
  -3   3  -6  158.57   28.84   0
  -3   3  -4  306.47   30.24   0
  -2   3  -5  768.21   31.25   0
  -1  -8   1   18.32   27.37   0
  -1  -4   2  788.15   28.57   0
   0  -2   1  646.10   30.05   0
   1  -5   0  865.05   28.00   0
   3  -2  -7 1047.51   46.48   0
  -6  -6   3  123.32   29.27   0
  -6   2  -3   69.15   34.27   0
  -3   3  -5    1.46   28.48   0
  -1  -5   2  352.79   25.56   0
   2  -2 -13  435.02   33.40   0
   2   0  -8  297.57   30.59   0
   3  -2  -8    8.65   45.20   0
  -6  -3   3  237.10   44.84   0
  -5  -7   3    9.68   30.08   0
  -1   0   1 7495.50  103.97   0
   0  -6   1  387.45   25.45   0
   0   2  -7  215.16   27.46   0
   0   2  -4 1048.21   31.45   0
   2  -1 -11  102.43   33.57   0
   3  -7  -4   78.77   32.32   0
  -7   1  -2  295.95   37.94   0
  -6  -7   3  303.81   31.03   0
  -5  -2   3 1790.57   49.33   0
  -4  -7   3  131.64   29.07   0
  -2   2  -1 2781.09   43.17   0
   0   2  -6   29.03   27.42   0
   0   2  -5  443.65   28.99   0
   1  -6   0  123.24   25.38   0
   1   0 -11  690.21   33.36   0
   1   1  -4 4014.15   41.61   0
   3  -3 -11  662.90   40.61   0
   4  -7  -8   68.59   49.32   0
  -6   2  -4  335.88   32.59   0
  -2  -8   2  159.92   25.02   0
  -1  -6   2   33.24   26.14   0
  -1  -2   2  653.77   30.73   0
   3  -9  -5  538.21   30.48   0
  -8   0  -2  748.79   39.82   0
  -7  -5   3  286.51   36.38   0
  -5   2  -2  372.17   33.39   0
  -1   2  -8  522.94   28.67   0
   0  -7   1  138.44   28.19   0
   1  -9  -1   92.19   29.49   0
   1  -2   0  418.31   30.43   0
   1   1  -6  496.43   31.38   0
   1   1  -5  221.24   30.06   0
  -2  -5   3  276.39   26.81   0
  -2  -4   3  791.80   27.23   0
  -1  -7   2  863.21   29.17   0
   2  -5  -1  973.99   28.29   0
   2  -4  -1    3.73   28.65   0
   2  -2 -12   31.05   34.87   0
   2  -1 -10  115.93   37.68   0
   3  -8  -4  198.36   33.10   0
  -7  -4   3   28.90   40.64   0
  -7   1  -3   41.26   31.42   0
  -6   1  -1  288.02   39.32   0
  -5   1   0  782.64   44.70   0
  -2  -3   3  460.72   30.82   0
  -1   2  -7   47.77   29.89   0
   1   0 -10    5.83   31.59   0
  -2  -6   3   13.54   26.55   0
  -2   2  -8  420.01   28.89   0
  -1   2  -3  871.83   33.20   0
   0  -8   1 1096.17   30.35   0
   1  -1 -12  371.18   31.02   0
   2  -6  -1  846.25   28.40   0
   3 -10  -5  -22.58   31.38   0
   3  -3 -10  208.42   43.58   0
  -7   1  -4  242.01   31.83   0
  -1  -8   2  295.46   29.58   0
  -1   2  -6  163.01   30.20   0
   2  -9  -2   34.55   28.74   0
   3  -6  -3  131.50   29.55   0
   4  -7  -7  191.37   44.99   0
   4  -6  -7  131.75   57.15   0
  -2  -7   3  914.51   30.25   0
  -2   2  -2  338.32   32.82   0
  -1   2  -5   56.29   27.75   0
  -1   2  -4   47.72   29.17   0
   3  -9  -4  325.95   31.60   0
  -2   2  -7   23.73   29.04   0
   0  -5   2 1328.49   28.92   0
   2  -3 -13   61.40   36.97   0
   2  -1  -9  906.87   34.19   0
   3  -7  -3  699.45   30.03   0
   4  -8  -7   34.55   38.04   0
  -8   0  -4  210.80   30.93   0
  -4   2  -6   60.26   31.66   0
   0  -4   2   61.67   26.09   0
   0   1  -8  535.39   32.32   0
  -7   0  -1  297.44   38.88   0
  -5  -6   4   79.20   30.31   0
  -5  -5   4   23.50   33.38   0
  -4  -5   4  631.18   29.91   0
  -2  -2   3   12.08   31.14   0
   0   1  -2  242.85   30.90   0
   1  -5   1  698.78   26.37   0
   1  -4   1 1568.19   29.50   0
   2  -2 -11  403.62   38.48   0
  -6   1  -2   -2.40   37.98   0
  -4  -6   4  100.19   27.67   0
  -4  -4   4   -9.94   29.11   0
  -4   2  -5  -22.40   30.08   0
  -3   2  -6  202.92   29.42   0
  -2   2  -5  134.90   30.61   0
  -2   2  -3  231.80   31.07   0
  -1  -5   3  620.39   27.29   0
   0  -3   2 4133.91   36.16   0
   0  -1   1 2029.04   36.33   0
   1  -6   1 1172.44   28.68   0
   3  -8  -3   -9.04   30.87   0
   3  -3  -9  693.64   49.42   0
  -5  -7   4  250.55   29.75   0
  -5  -4   4  525.44   34.44   0
  -4  -7   4   35.03   29.30   0
  -3   2  -5 2961.10   36.89   0
  -3   2  -3 1245.57   32.68   0
  -2   2  -4  879.36   30.22   0
  -1  -6   3  816.88   30.42   0
  -1  -4   3  492.38   26.98   0
   0  -7   2  142.77   27.97   0
   0   1  -7   22.67   27.76   0
   1  -1 -11   84.06   32.22   0
   2  -1  -8   39.00   35.60   0
  -6  -6   4  174.91   29.70   0
  -3   2  -4   38.27   27.47   0
  -1  -1   2 1189.50   36.42   0
   1  -7   1  623.95   27.98   0
   3  -4 -11  651.57   44.30   0
   4  -7  -6  124.50   38.50   0
  -6   1  -3  806.74   37.04   0
  -1  -7   3   39.22   27.99   0
   1  -3   1 7464.25   41.34   0
   3  -9  -3    4.06   32.67   0
   4  -8  -6  274.27   37.01   0
   4  -6  -6  645.16   48.53   0
  -6   1  -5  384.78   31.51   0
  -6   1  -4   49.67   32.37   0
  -4  -3   4   48.38   33.75   0
  -1  -3   3  171.23   27.62   0
   0   1  -6  171.70   30.33   0
   2  -6   0  708.48   27.74   0
   2  -5   0    6.11   25.43   0
  -5   1  -1  129.97   35.14   0
  -2   1   0  503.47   42.19   0
   0   1  -3  837.27   32.34   0
   1  -8   1   76.15   26.76   0
   3  -7  -2    3.10   30.26   0
  -7   0  -2   -3.41   38.09   0
  -6  -4   4  346.60   37.34   0
  -2  -5   4  237.80   28.32   0
   0   1  -5  721.56   31.10   0
   1  -2 -12  363.85   34.85   0
   2  -7   0  924.31   30.11   0
   2  -4   0 1534.09   30.69   0
   2  -2 -10  153.79   40.37   0
  -6   0   0  454.47   47.97   0
  -5  -3   4  378.56   40.04   0
  -5   0   1 1280.96   56.54   0
  -2  -6   4  414.48   28.88   0
   0   1  -4  362.59   29.78   0
   1  -1 -10  327.06   33.59   0
   3  -3  -8  154.85   51.78   0
  -3   1  -8  315.70   29.51   0
  -3   1   0 2154.72   46.68   0
  -2   1  -8  637.23   30.05   0
  -1   1  -1    5.44   33.26   0
   0  -2   2  889.36   28.57   0
   3  -8  -2   18.11   28.37   0
   4  -7  -5  527.76   35.69   0
  -8  -1  -2  172.34   37.97   0
  -1   0 -10  417.15   29.46   0
   2  -4 -13  125.51   37.92   0
  -7   0  -3  386.54   33.41   0
  -4   1  -7  176.79   29.03   0
   0  -6   3  608.95   29.76   0
   0  -5   3  344.77   27.37   0
   1  -6   2    3.94   27.84   0
   1  -5   2  338.91   26.19   0
   1   0  -6 2026.91   35.83   0
  -7   0  -5  123.27   28.88   0
  -7   0  -4  279.17   30.31   0
  -2  -3   4 1105.86   31.10   0
  -1  -2   3 3590.20   35.75   0
   3  -4 -10  208.04   48.94   0
  -8  -2   0    4.63   48.26   0
  -3   1  -7  331.50   29.88   0
   0  -4   3  927.88   25.30   0
   1  -7   2  328.35   27.63   0
   1  -2   1  307.93   27.35   0
   1   0  -5  129.88   34.77   0
   2  -3   0 4092.27   38.47   0
  -4   1  -6  411.11   30.12   0
  -1  -6   4   65.24   26.84   0
   0   0  -8  217.04   29.94   0
   2  -3 -11  371.05   39.02   0
   2  -2  -9   74.86   33.44   0
   3  -3  -7  120.63   51.35   0
  -8  -1  -4  485.56   31.67   0
  -7  -1   0  388.14   46.72   0
  -5  -6   5  186.75   29.84   0
  -4  -6   5  174.75   29.11   0
  -4  -5   5   73.47   30.81   0
  -4  -2   4   47.39   40.27   0
  -2  -1   3 2952.09   46.22   0
  -1   0  -9   52.15   27.60   0
  -1   1  -5 1417.76   33.25   0
   1  -2 -11  -87.90   34.40   0
   1   0  -4  463.52   34.67   0
   2  -6   1  124.29   26.59   0
   3  -7  -1  912.63   31.57   0
  -3   1  -6   55.77   31.94   0
  -2   1  -6 1201.51   30.82   0
  -1  -4   4  697.69   26.77   0
   2  -5   1  405.32   24.29   0
   3  -8  -1  271.84   30.66   0
  -6  -3   4  152.14   48.47   0
  -6   0  -1   48.13   39.68   0
  -4   1  -5  350.33   28.20   0
   0  -3   3 1336.95   27.26   0
  -4  -4   5  618.89   32.36   0
  -2   0  -9  151.67   28.66   0
  -1   1  -4 2077.94   34.87   0
  -1   1  -3  278.82   29.99   0
   1  -3   2  308.34   26.79   0
   4  -9  -4   87.96   31.42   0
   4  -6  -4   17.12   37.38   0
  -6  -6   5  110.55   32.42   0
  -6   0  -6   48.45   28.71   0
  -4   1  -4  183.82   28.83   0
  -3   1  -1  223.40   34.87   0
   0   0  -7  307.67   28.11   0
   2  -4 -12  726.63   43.00   0
   2  -4   1 2749.92   31.80   0
   3  -5 -11   18.09   45.14   0
   4  -5  -5    2.76   52.90   0
  -2  -2   4 2462.62   37.13   0
  -1  -3   4  779.91   29.11   0
  -1   0  -8  431.95   30.62   0
   1  -3 -12    3.08   34.21   0
  -6   0  -5  395.57   29.61   0
  -6   0  -2  154.56   34.00   0
  -5  -4   5  165.61   34.18   0
   1  -6   3  797.20   28.72   0
   2  -2  -8  947.90   39.88   0
  -6  -5   5  103.90   34.75   0
  -6   0  -4   35.82   30.96   0
  -5  -2   4   24.63   53.48   0
  -4   0  -8  131.78   26.57   0
  -3   1  -2  963.17   36.14   0
  -2   0   2  153.39   72.42   0
  -2   1  -4  164.74   29.39   0
  -2   1  -2  189.88   32.45   0
   0  -6   4  350.17   29.23   0
   0  -5   4 1843.15   31.15   0
   2  -5 -13  364.78   39.54   0
   3  -3  -6 1047.28   67.42   0
   4  -8  -3   75.64   30.52   0
   4  -7  -3   85.93   34.26   0
  -6   0  -3  794.60   34.85   0
  -3   1  -3  221.83   32.58   0
  -2   0  -8  269.53   31.38   0
  -2   1  -3  547.92   30.17   0
  -1  -1 -10  890.65   34.11   0
   1  -2 -10  753.67   33.77   0
   2  -3 -10 1292.96   42.94   0
   3  -4  -9  278.81   51.98   0
  -7  -1  -1   63.55   38.64   0
  -4  -3   5  707.46   32.60   0
   0  -4   4   38.39   25.76   0
   0  -2 -11  339.26   31.00   0
   0   0  -6  152.47   31.64   0
   1  -4 -13  140.53   33.52   0
   2  -6   2  967.46   29.26   0
   4  -9  -3  440.21   32.09   0
   4  -5  -4  683.93   44.96   0
  -1  -6   5   19.79   26.94   0
   0  -2   3  292.08   27.49   0
   1  -4   3   76.36   22.99   0
   2  -3   1   97.06   26.94   0
  -5   0   0    6.07   42.27   0
  -4   0  -7  952.79   29.68   0
  -2  -1 -10   69.39   26.91   0
  -1  -5   5  510.14   27.56   0
  -1   0  -7   10.38   27.80   0
   0  -1   2  261.63   29.54   0
  -1  -1   3   72.22   32.43   0
   2  -2   0 1799.85   34.37   0
  -7  -1  -4   74.46   31.76   0
  -7  -1  -2  363.91   38.45   0
  -6  -4   5  124.68   37.54   0
  -6  -1   1  443.92   59.77   0
  -1  -4   5  257.38   26.22   0
  -1  -2   4  115.07   28.62   0
   1  -2   2 2104.77   30.62   0
   4  -8  -2  272.74   31.62   0
  -8  -2  -2   75.98   39.49   0
  -7  -1  -3  616.37   37.42   0
  -5  -6   6  248.46   29.77   0
  -5  -3   5   33.19   39.45   0
  -4  -5   6  495.05   31.46   0
  -3   0  -7   26.60   30.82   0
  -2   0  -7  840.51   31.21   0
   0  -3 -12  106.06   31.32   0
   0  -3   4  392.22   26.24   0
   0   0  -5 4660.98   40.33   0
   1  -3 -11  -10.81   36.40   0
   2  -4   2   54.35   23.97   0
  -4   0  -6  199.81   31.27   0
  -3  -5   6   94.51   28.17   0
   1  -3   3  463.46   26.07   0
   2  -4 -11  231.79   39.61   0
   4  -6  -2  199.43   33.83   0
  -8  -2  -4   87.35   31.47   0
  -8  -2  -3   74.98   36.36   0
  -1   0  -6 1242.61   32.60   0
   0  -1  -8  101.44   28.74   0
   1  -6   4  187.61   29.47   0
  -5  -5   6    4.81   30.00   0
  -3  -1  -9    9.67   31.68   0
   1  -5   4  109.56   27.73   0
  -4  -4   6  131.42   34.59   0
  -3  -4   6  131.24   30.54   0
  -2  -1  -9 1442.70   31.11   0
   0  -5   5  421.06   27.85   0
   2  -6   3   58.20   26.22   0
   2  -3  -9   11.34   37.48   0
   3  -5 -10  333.21   51.86   0
  -3   0  -6  624.42   31.41   0
   0   0  -4 1491.11   34.85   0
   1  -1  -6  174.16   33.06   0
   2  -5 -12  175.89   41.78   0
   2  -5   3   69.83   27.19   0
   4  -8  -1  247.67   30.75   0
   4  -7  -1  -19.89   30.19   0
  -4   0  -5  770.00   28.91   0
   0  -4   5 1236.79   29.50   0
   1  -4   4 1201.77   26.67   0
   1  -1   1   18.71   27.09   0
  -7  -2   1   87.25   55.04   0
  -2  -1   4  527.68   37.95   0
  -6  -1  -5  130.01   31.36   0
  -5  -1  -7  541.68   31.53   0
  -4  -2   5   28.37   36.20   0
  -1   0  -5   12.30   28.80   0
   0  -2   4 1032.77   30.58   0
   1  -5 -13  102.02   34.08   0
   3  -4  -8 1208.92   60.58   0
  -3   0  -5  182.39   29.98   0
  -1  -2 -10  292.52   30.35   0
   0  -3 -11   88.83   31.71   0
   2  -4   3  216.99   24.55   0
   2  -2   1 2763.29   34.41   0
   3  -6 -11  113.90   45.91   0
   3  -4   1  467.01   26.10   0
  -7  -2  -6   36.01   29.16   0
  -3  -3   6  441.57   29.84   0
  -3  -1  -8  406.26   31.08   0
  -2  -1  -8  219.46   32.39   0
  -1  -4   6  433.49   29.98   0
   0  -1  -7  416.63   29.91   0
   0   0  -3   44.00   30.11   0
   1  -3 -10   45.39   31.75   0
   1  -2   3  832.89   28.70   0
  -4  -3   6    8.57   34.91   0
  -3  -2 -10  509.82   29.16   0
  -2  -2 -10  175.22   28.14   0
  -2   0  -5  345.22   28.90   0
   0  -3   5  677.43   27.08   0
   1  -3   4  549.21   26.06   0
   3  -5   2  639.32   30.07   0
   3  -3   0   72.37   26.91   0
  -6  -1   0  132.37   45.83   0
  -4  -1   4  210.32   50.72   0
  -4   0  -3  110.50   31.40   0
  -1  -2   5 3055.61   35.02   0
   0  -1   3  854.39   30.70   0
   1  -5   5 1323.07   31.17   0
   2  -4 -10  499.92   40.10   0
  -6  -3   5  374.26   47.06   0
  -5  -1  -6   72.78   29.52   0
  -4  -5   7   18.57   29.22   0
  -4  -1  -7  -11.64   29.10   0
  -3  -5   7  455.10   29.71   0
   0  -5   6  346.54   27.18   0
   1  -1  -5  554.35   35.47   0
   2  -5   4  125.92   26.12   0
   4  -6   0  371.39   27.76   0
  -7  -2  -5  153.19   31.88   0
  -6  -1  -3  -25.95   32.45   0
  -3   0  -4   95.25   32.12   0
  -1   0  -4 3117.49   36.73   0
   0  -4 -12  179.18   31.21   0
   4  -4  -4 1465.11   56.84   0
   4  -4  -3   95.95   38.50   0
  -6  -1  -2  282.28   32.95   0
  -6  -1  -1  377.19   38.81   0
  -4   0  -2 2983.97   39.36   0
  -1  -3   6 1197.34   29.55   0
   1  -4 -11  185.87   37.86   0
   1  -4   5  -14.13   27.64   0
   2  -3  -8   87.88   38.40   0
   2  -3   3   -3.59   23.98   0
  -8  -3  -5  349.38   28.73   0
  -3  -4   7  661.81   30.19   0
  -2   0  -4  222.74   30.00   0
  -1  -1  -7 1351.65   30.65   0
   0  -4   6    4.65   26.87   0
   3  -4   2  771.27   25.40   0
  -8  -3   0  219.82   43.44   0
  -7  -2  -4  162.97   32.67   0
  -6  -4   6  193.85   38.65   0
  -5  -5   7  131.19   30.55   0
  -5  -2  -8    7.54   27.98   0
  -2  -3 -11  320.84   29.36   0
  -1  -2  -9  639.93   28.64   0
   1  -1   2 3368.73   37.29   0
   2  -5 -11  470.12   41.23   0
   2  -2   2  323.55   25.11   0
   3  -3   1  150.54   26.10   0
   4  -5   0  -16.38   27.41   0
   5  -7  -5    1.21   39.97   0
  -7  -2   0  350.67   45.14   0
  -5  -3   6 1156.07   38.26   0
  -5  -2   5 1023.36   52.69   0
  -4  -4   7    6.55   29.26   0
  -3  -2  -9  778.12   31.86   0
  -2  -1  -7 1395.98   31.71   0
   0  -1  -6  274.60   30.39   0
   3  -5   3  170.22   27.98   0
   4  -6   1  -16.93   27.38   0
   5  -7  -4  368.97   37.27   0
  -8  -3  -4  116.58   30.78   0
  -4  -1  -6   60.08   27.67   0
  -3   0  -3  145.85   29.15   0
  -2  -2  -9  338.46   30.78   0
   0  -2   5  399.94   26.76   0
   1  -5 -12  588.08   34.13   0
   1  -2   4   77.99   25.47   0
   2  -6 -12  277.97   42.01   0
  -7  -2  -3   89.03   35.00   0
  -3  -2   6  121.36   32.34   0
   1  -6 -13  234.81   34.39   0
   1  -3  -9 1575.71   36.00   0
   1  -3   5  774.02   27.64   0
   5  -8  -2  133.51   31.91   0
  -8  -3  -1  -23.01   39.73   0
  -7  -2  -2  626.17   37.81   0
  -7  -2  -1   -4.01   37.33   0
   0  -3   6  -23.15   26.90   0
   0  -2  -8 1655.50   31.76   0
  -8  -3  -2  268.78   38.15   0
  -3  -3   7   76.05   31.30   0
  -2   0  -3  504.00   30.24   0
   0  -1   4  350.95   30.15   0
   3  -4   3   42.56   25.52   0
   4  -5   1  663.44   28.74   0
  -5  -4   7  162.10   33.53   0
  -3   0  -2  487.27   32.69   0
  -1  -2   6  173.39   25.82   0
   1  -4   6  590.07   28.54   0
   3  -3   2  416.68   24.77   0
  -3   0   1   65.06   49.54   0
  -1  -1  -6 1153.89   31.35   0
   0  -4 -11  286.67   30.98   0
   2  -4   5  416.41   26.66   0
   2  -2   3  259.93   25.59   0
   4  -6   2   75.37   27.28   0
   4  -4   0  277.86   28.57   0
  -7  -3  -6  616.14   29.10   0
  -4  -3   7  450.36   35.34   0
  -4  -1  -5  102.53   28.44   0
  -3  -3 -10   60.59   28.79   0
  -2  -3 -10  700.00   30.42   0
  -2  -1  -6 2057.52   31.36   0
  -1  -1   5  260.25   32.77   0
   1  -1   3  292.82   27.32   0
   2  -4  -9   34.07   38.02   0
   3  -5   4  275.16   28.11   0
   5  -7  -1   93.37   31.31   0
   5  -6  -3   81.64   34.97   0
  -3  -2  -8    2.60   30.81   0
  -3   0  -1 2683.30   44.37   0
  -1  -2  -8   15.48   26.59   0
   5  -6  -4   81.98   42.24   0
  -3  -4   8   24.25   31.36   0
  -2  -2  -8  481.57   31.35   0
  -1   0  -2   44.43   29.26   0
   0  -5 -12   -0.73   32.51   0
   1  -4 -10  324.60   34.06   0
   1  -2   5  104.14   24.52   0
   3  -6 -10  364.19   46.57   0
  -3   0   0  230.31   38.82   0
  -2  -4   8  636.72   28.79   0
  -2   0  -2  130.22   29.30   0
  -2   0   3 2608.59   56.03   0
   0  -2   6   66.59   25.18   0
   0  -1  -5   37.75   29.92   0
   1  -3   6  860.16   28.87   0
  -5  -2  -6   27.64   31.02   0
   2  -3  -7  115.59   39.69   0
   2  -3   5  762.33   27.09   0
   3  -4   4  500.56   25.14   0
   3  -3   3 1071.14   24.32   0
   5  -7   0   76.23   28.76   0
   5  -6  -1  106.69   31.69   0
  -7  -3  -5  187.52   29.95   0
  -4  -4   8   97.62   31.29   0
  -3  -1  -5  537.24   30.98   0
  -2  -4 -11  105.56   29.66   0
  -8  -4  -5   24.77   26.77   0
  -6  -2  -4  221.95   30.58   0
  -5  -3  -8  202.38   27.98   0
  -4  -1  -4  856.93   30.03   0
  -1  -5 -12  351.78   31.70   0
   0  -1   5  724.87   31.56   0
   1  -5 -11  152.30   36.97   0
   2  -5 -10   57.32   37.24   0
   2  -4   6  879.47   28.55   0
   3  -2   1 1224.16   30.69   0
  -3  -2   7  178.08   32.22   0
  -1   0   3 1836.21   42.37   0
   0  -2  -7   -4.76   28.82   0
   2  -1   1 1606.73   35.64   0
   5  -6   0   47.21   28.55   0
  -5  -3   7   11.04   36.20   0
  -2  -3   8  131.68   28.70   0
  -1  -1  -5 3605.94   38.59   0
   1  -6 -12  -20.15   32.42   0
   1  -1   4 2037.94   30.25   0
  -3  -3   8  177.96   30.26   0
  -2  -1  -5  615.38   30.06   0
  -1  -3  -9  197.57   27.80   0
   1  -2  -6  -18.91   32.23   0
   2  -7 -12  205.79   38.24   0
   2  -6 -11  -12.92   40.37   0
  -7  -3  -4  391.27   32.17   0
  -6  -2  -3 1035.77   33.95   0
  -1  -1   6  477.79   31.74   0
   1  -2   6  202.88   26.95   0
   3  -4   5  285.88   25.02   0
   3  -2   2  507.02   27.30   0
   5  -6   1  121.22   30.33   0
  -8  -4  -4  168.96   28.68   0
  -5  -2  -5  746.75   31.21   0
  -2  -2  -7  431.21   29.79   0
  -1  -2  -7  889.79   29.72   0
   0   0   2 1481.20   35.30   0
   1  -3   7  -36.96   26.18   0
   2  -3   6  311.66   26.11   0
   2  -1   2  198.16   26.90   0
   0  -2   7  241.42   25.42   0
   2  -2   5  130.06   24.67   0
  -4  -3  -8  764.48   29.57   0
  -4  -3   8  161.74   31.62   0
  -4  -1  -3 1132.52   30.84   0
  -3  -4 -10  113.08   29.76   0
  -3  -1  -4  143.42   30.90   0
   0  -5 -11  192.28   31.39   0
   0  -3   8   70.81   28.50   0
   5  -5   0 1045.17   33.59   0
   0  -1   6  154.20   28.97   0
   1  -1   5 1399.42   28.96   0
   2  -1   3  564.54   28.47   0
  -7  -4  -6  100.66   26.51   0
  -2  -4 -10   47.71   27.43   0
   0  -6 -12   46.42   32.70   0
   0  -1  -4  197.12   30.54   0
   0   0   3   25.40   31.19   0
   3  -3   5  -12.31   24.40   0
  -3  -3  -8  710.87   30.74   0
   2  -3   7   61.72   24.94   0
  -4   3  -5  219.11   34.73   0
  -3  -9  -4  447.07   31.31   0
  -2  -8  -1  910.24   48.41   0
   0   2  10   -1.30   23.95   0
   0   3  10  441.03   22.47   0
   0   4  10   85.32   23.07   0
   0   5   4 1999.22   29.89   0
   0   6   7  109.01   20.63   0
  -6   3  -6  -61.48   27.91   0
  -5 -11  -6   82.56   27.60   0
  -5   1  -7  409.99   28.30   0
  -4  -6  -8  318.85   24.21   0
  -4  -4  -8   28.34   25.99   0
  -2  -5  -5  160.52   25.52   0
  -2  10   9    9.80   27.87   0
   0   5  10  -16.32   22.50   0
   0   6   8  451.34   21.18   0
  -4 -10  -5  203.78   31.17   0
  -3   3  -4  299.22   32.84   0
  -1   7   3  640.10   41.13   0
   0   6   6   26.88   20.33   0
   0   6   9   92.95   22.07   0
  -4   4  -4   44.56   31.83   0
  -4   6  -2   74.15   39.81   0
  -2  -8   0   26.78   55.27   0
  -1  -3  -3   17.45   24.73   0
   0   1  10   61.01   25.60   0
  -4  -9  -6  188.50   28.76   0
  -2  -2  -5  113.60   26.25   0
  -2   1  -4  205.63   29.30   0
   0   6  10   -5.61   21.65   0
  -4   5  -3  646.19   34.31   0
  -3  -1  -6   24.80   25.47   0
  -2  -6  -4  762.20   29.23   0
  -1  -2  -3  677.17   26.03   0
  -1   9   8  -38.85   28.51   0
  -1   9   9   68.43   26.06   0
  -1   9  10  -28.91   24.29   0
  -5 -11  -5  191.24   29.31   0
  -5  -2  -8  -22.73   26.25   0
  -5   2  -6    4.56   27.38   0
  -3   4  -3   62.62   32.30   0
  -2   9   4   -3.51   51.04   0
  -1  -3  10   48.70   30.03   0
   0  -3   6  -10.68   29.50   0
  -4 -10  -4  235.63   34.29   0
  -4  -7  -7  399.26   27.35   0
  -3   6  -1  817.05   50.00   0
  -1   9   7  220.80   32.60   0
   0  -2   8  166.63   27.92   0
   0   4   2   44.48   32.63   0
  -5  -7  -8  832.66   26.85   0
  -5   0  -7   22.88   25.99   0
  -1  -6   5    4.66   39.80   0
  -1  -4   9  109.07   31.07   0
   0   5   3  143.77   29.55   0
  -5  -9  -7  343.47   26.53   0
  -5  -3  -8  227.37   22.53   0
  -4  -2  -7   -2.01   26.25   0
  -3  -2  -6  241.35   25.10   0
  -3   5  -2  701.13   43.44   0
  -5  -6  -8  314.25   25.41   0
  -5   3  -5  202.37   28.73   0
  -2  10   6   -5.90   36.35   0
  -6   2  -6  208.99   26.08   0
  -5 -11  -4   -3.15   32.63   0
  -3  -9  -2 1128.30   44.23   0
  -3  -8  -4  160.93   29.30   0
  -3  -4  -6  219.29   25.24   0
  -4  -9  -5  293.27   30.11   0
  -4  -5  -7   -8.07   27.19   0
  -4   2  -5   13.68   27.87   0
  -2   0  -4  218.47   28.21   0
  -1  -4  -2  303.95   31.28   0
  -1   8   4   91.79   43.28   0
  -1   9   6   58.60   33.55   0
   0  -3   7 1336.82   29.57   0
   0  -1  10  660.36   26.90   0
  -5   4  -4  347.33   34.97   0
  -4 -10  -3  536.13   37.98   0
  -4  -4  -7 1138.35   27.25   0
  -2  -5  -4 1392.07   30.21   0
  -1  10  10  -22.51   26.07   0
   0  -2   9  981.13   27.13   0
  -6   3  -5  347.66   29.52   0
  -5   1  -6  410.34   27.30   0
  -2   2  -3  293.01   31.42   0
  -1   1  -2 3142.57   42.56   0
   0   8   8   10.75   24.32   0
   1   2   6   58.58   21.44   0
   1   2   7  877.22   22.89   0
   1   3   7    4.29   18.75   0
   1   3   8  101.96   21.83   0
  -5   5  -3  124.62   36.10   0
   1   3   6  204.48   20.25   0
   1   4   7  143.02   20.88   0
  -5 -11  -3  204.32   36.25   0
  -5 -10  -5   77.78   30.75   0
  -1  -6   6   95.66   34.79   0
  -1  -4  10   10.84   27.35   0
   0  -3   8   78.08   30.46   0
   1   1   7 1337.88   23.68   0
   1   3   9  158.33   21.82   0
   1   4   9  205.80   22.90   0
  -6   4  -4   23.96   32.51   0
  -5  -9  -6  118.16   27.91   0
  -5  -2  -7  883.93   29.25   0
  -4  -7  -6  150.83   28.61   0
  -3  -6  -5  323.21   25.38   0
  -1  10   8  375.58   31.59   0
   0   8   7  109.50   24.24   0
   1   2   9  611.97   24.10   0
   1   4   6 1319.92   24.33   0
   1   4  10  448.07   23.12   0
   1   5   9   23.81   22.29   0
  -5  -7  -7   79.28   27.76   0
  -4  -1  -6   42.65   26.06   0
  -3  -9  -1   -2.84   43.98   0
  -2  -4  -4 2426.83   30.09   0
  -2  -1  -4 3825.62   34.17   0
   0  -2  10   55.03   27.63   0
   1   3   5  405.18   21.51   0
   1   3  10   32.44   20.85   0
   1   5   7  308.51   22.05   0
   1   5  10  593.56   22.96   0
  -6   1  -6  180.55   26.97   0
   0   9  10  159.76   24.72   0
   1   0   7   35.66   21.17   0
   1   1   9   41.77   22.87   0
   1   2  10  303.24   22.34   0
  -5  -6  -7  198.19   27.03   0
  -5  -3  -7  212.70   25.37   0
  -5   2  -5   56.66   30.28   0
  -4 -10  -2  333.87   37.52   0
  -4  -9  -4  101.70   33.30   0
   0   9   9  257.06   25.75   0
   1   0   5   31.55   21.77   0
   1   4  11  178.06   22.58   0
  -5  -4  -7   77.12   28.05   0
  -4  -6  -6  179.14   25.44   0
  -3  -8  -3  633.96   32.16   0
   0  -3   9  285.54   28.04   0
   1   0   8  413.07   22.91   0
   1   4   5 1133.34   24.63   0
   1   6  10  301.76   21.25   0
  -5  -5  -7  351.05   26.97   0
  -4  -2  -6  641.28   26.97   0
  -4   4  -3  647.37   34.56   0
  -3  -5  -5  340.69   26.12   0
  -1  -6   7   -7.46   34.31   0
   0   8   6 1446.18   30.06   0
   1   1  10  783.64   26.15   0
  -5 -10  -4  195.70   31.62   0
  -1   9   5   28.44   38.63   0
  -1  10   7   11.50   34.39   0
   0   9   8  289.26   28.30   0
  -4  -5  -6  766.59   28.43   0
  -4  -3  -6  579.03   27.69   0
  -3  -2  -5  213.88   25.80   0
  -2  10   5  365.95   46.93   0
   1  -1   6   13.36   22.49   0
   1   0   4 3234.65   29.71   0
   1   3   4 1711.19   25.76   0
   1   7  10  125.74   22.80   0
  -5  -9  -5  197.92   29.67   0
  -4  -4  -6   22.38   26.21   0
  -3  -4  -5   55.08   25.24   0
  -3  -3  -5   80.77   24.71   0
  -1   0  -2   34.22   26.75   0
   1   7   9  123.60   22.35   0
  -5   3  -4  167.08   32.83   0
  -4 -10  -1   56.89   38.11   0
  -4   5  -2  272.90   37.16   0
  -3   1  -4  346.21   26.39   0
  -2   1  -3  556.46   30.92   0
   0  -3  10  227.35   28.74   0
  -5  -1  -6  110.06   26.28   0
  -4   7   0  239.08   46.58   0
  -3  -9   0   66.95   45.89   0
  -2  -7  -1   24.06   37.61   0
  -1  11   9   11.18   30.92   0
   1   5   5 1690.92   26.53   0
  -5  -7  -6  589.37   28.00   0
  -4   0  -5  796.81   27.64   0
  -4   6  -1   14.77   41.51   0
   0   9   7  224.66   30.68   0
   0  10  10  170.30   25.27   0
   1  -1   9  884.16   28.10   0
  -6   3  -4  280.69   30.24   0
  -5   1  -5    3.44   28.72   0
  -4  -9  -3  745.10   36.06   0
  -1  -2  -2 1114.43   29.61   0
  -5  -2  -6   46.11   26.04   0
  -5   4  -3   45.80   33.60   0
  -3  -6  -4 1282.51   28.15   0
  -1  -1  -2 4218.25   41.18   0
  -4  -8  -4  682.97   29.72   0
  -3   4  -2  743.50   35.50   0
   0  -4   9   35.81   28.20   0
   1   1   3  515.31   23.92   0
   1  -2   7   89.45   24.80   0
   1   2   3  644.51   24.46   0
  -6   1  -5  380.81   27.14   0
  -5  -5  -6   96.49   26.47   0
  -5  -3  -6  436.31   26.84   0
  -4 -10   0  191.26   39.18   0
  -4  -6  -5   39.85   24.25   0
  -4  -1  -5   97.95   25.18   0
  -3   0  -4   89.94   27.60   0
  -1  10   6  134.75   35.68   0
  -1  11   8  235.21   33.20   0
   0  -5   5  403.47   38.73   0
   1  -2   8  512.60   25.51   0
  -6 -10  -4   70.08   29.00   0
  -6  -9  -5  293.70   27.84   0
  -6   4  -3  279.86   31.06   0
  -5  -9  -4  290.64   31.59   0
  -5   5  -2  109.09   38.92   0
  -1  -7   4  516.43   66.75   0
   0  -5   6  348.45   34.32   0
  -2  -4  -3 1022.50   29.13   0
  -2   0  -3  510.04   28.24   0
  -1  -7   5   19.08   46.82   0
   0  -5   4 1833.00   41.55   0
   0  10   8  414.81   29.93   0
   1  -2   9  103.94   26.35   0
   1   9  10  426.88   23.46   0
  -5   2  -4  264.01   30.29   0
  -4  -5  -5    0.78   26.06   0
  -3  -9   1  216.94   49.78   0
  -3  -5  -4  -16.31   28.16   0
   0  -4  10  251.06   30.15   0
   1   6   5  618.44   24.53   0
   2   3   9   39.33   22.21   0
   2   4   9   21.43   22.31   0
   2   4  10   54.11   22.36   0
  -6  -6  -6  -41.01   24.60   0
  -6  -3  -6   89.71   25.18   0
  -6   5  -2   18.17   33.17   0
  -5   6  -1   76.18   37.93   0
  -4  -2  -5  464.42   25.37   0
  -4   3  -3   42.77   28.86   0
   0   9   6  337.10   31.65   0
   1   3   3   10.31   23.73   0
   2   3   8  135.39   21.85   0
   2   3  10  608.09   22.10   0
   2   4   8  -13.72   20.85   0
   2   5   9  433.37   22.22   0
   2   5  10  185.75   20.52   0
  -5  -7  -5  499.77   29.63   0
  -4  -9  -2  -35.29   33.65   0
  -4  -4  -5    4.84   24.65   0
   0  11  10   28.75   25.88   0
   1  -2   4   70.88   25.01   0
   1  -2  10  446.82   28.89   0
   1  -1   3  303.84   25.12   0
   1   5   4   25.66   24.95   0
   1   9   9  883.68   24.92   0
   2   2   8  446.49   21.65   0
   2   2   9  307.19   22.26   0
   2   6  10 1068.67   22.25   0
  -6  -5  -6  161.37   25.69   0
  -6  -4  -6  532.82   26.61   0
  -5 -10  -2  -47.07   35.15   0
  -3  -1  -4  149.71   25.50   0
  -3   5  -1  164.51   37.17   0
   2   2  10  185.93   22.57   0
   2   3   7  300.22   20.29   0
   2   5   8  534.76   22.03   0
  -3  -4  -4  -19.48   25.51   0
  -2  -3  -3  152.72   24.83   0
  -2  -1  -3   -3.60   24.73   0
  -1   2  -1  286.75   37.44   0
   2   4   7  630.34   20.79   0
  -6 -10  -3   52.67   31.01   0
  -5  -1  -5   40.41   24.91   0
  -4  -8  -3   75.55   28.61   0
   1  -3   7  -13.45   27.50   0
   2   1   8  193.00   20.33   0
   2   1   9 1399.72   24.95   0
   2   7  10   24.26   21.92   0
  -6  -9  -4   20.54   29.51   0
  -5  -6  -5   -9.51   27.20   0
   0  -5   3  336.58   42.61   0
   0  11   9  384.21   28.42   0
   1   9   8   36.07   25.09   0
   2   6   8 1068.22   22.47   0
  -2   2  -2  338.42   30.80   0
   0  10   7  472.08   31.86   0
   1  10  10   85.62   25.20   0
   2   3   6   74.56   20.03   0
   2   5   7  164.80   19.87   0
   2   7   9   85.41   22.28   0
  -5  -2  -5  780.94   27.33   0
  -3  -8  -1  165.00   36.33   0
  -3  -6  -3    4.45   27.43   0
   1  -3   9  242.74   27.31   0
  -6  -7  -5  168.49   27.65   0
  -5  -5  -5  649.63   27.71   0
  -4  -6  -4    3.05   24.12   0
  -4   0  -4 1141.21   25.80   0
  -4   4  -2   -1.01   30.86   0
   1   4   3 4393.34   35.93   0
   2   4   6 1060.18   22.00   0
  -6   3  -3  126.35   28.07   0
  -5 -10  -1  476.96   36.60   0
  -5  -3  -5  -17.31   26.01   0
  -3  -9   2   29.04   49.41   0
  -3   6   0  392.14   45.84   0
   2   0   7  822.91   22.22   0
  -3   1  -3  205.91   26.47   0
  -2  -5  -2  435.17   29.50   0
   1  -3  10  168.18   28.09   0
   1   8   6  143.12   26.71   0
   1  10   9  220.81   26.40   0
   2   7   8    0.05   21.72   0
  -6 -10  -2  275.87   31.21   0
  -6  -6  -5  912.39   25.62   0
  -6  -2  -5   98.01   24.32   0
  -4  -9  -1  299.82   33.56   0
  -6  -8  -4  129.03   28.83   0
   2   0   6   -1.14   20.74   0
   2   5   6  512.85   21.13   0
  -6  -5  -5  -18.74   25.43   0
  -6  -4  -5  127.56   27.99   0
  -6  -3  -5  195.46   25.30   0
  -5   4  -2  400.42   33.88   0
  -4  -5  -4  651.20   24.91   0
   1   9   7  617.53   28.10   0
  -6  -9  -3  243.25   30.72   0
  -6   4  -2  324.66   29.70   0
  -5   0  -4  981.10   28.53   0
  -3   7   1  765.17   49.25   0
  -3   8   2   48.89   55.83   0
   0   8   4 1398.83   38.93   0
   2  -1   9   21.04   23.79   0
   2   1   5  639.99   23.42   0
   2   9  10  131.22   23.35   0
  -5  -9  -2  340.86   34.83   0
  -5  -8  -3  463.33   31.32   0
  -4  -8  -2  346.81   30.44   0
  -4   5  -1  623.95   36.05   0
  -3  -5  -3   72.92   26.11   0
   0   9   5  687.91   39.75   0
   1   0   2   11.92   23.40   0
   1  11  10  471.56   27.18   0
   2  -1  10  183.68   25.86   0
  -5 -10   0   19.18   36.82   0
  -4  -4  -4  100.67   23.46   0
  -4  -2  -4  934.02   25.15   0
  -1  10   5   -8.88   48.21   0
   2   4   5  601.62   21.95   0
  -5  -6  -4 1275.01   29.07   0
  -5   2  -3  133.82   28.64   0
  -4  -3  -4   35.63   23.64   0
  -2   5   0   31.57   42.05   0
   0   7   3   89.87   39.67   0
   1   2   2 1279.49   27.14   0
   1  10   8  157.16   28.16   0
   2   6   6  653.71   21.70   0
  -6 -10  -1  -29.07   32.41   0
  -6   2  -3   94.60   28.04   0
  -6   5  -1  261.53   30.37   0
  -3   0  -3  160.56   24.30   0
  -2   1  -2  191.44   27.53   0
   2   0   5  368.18   22.73   0
   2   9   9  171.25   23.39   0
   3   5  10  579.90   22.72   0
  -5   5  -1   -3.42   33.35   0
   0  -6   6  183.62   38.50   0
   3   3  10   28.15   20.35   0
   3   4   9  -11.29   20.22   0
   3   6  10    5.45   20.81   0
  -4  -9   0   94.97   37.02   0
  -3  -4  -3 1255.62   29.48   0
  -2  -4  -2 1825.04   33.17   0
  -1  -3  -1   60.69   31.20   0
   0  10   6   79.23   33.38   0
   1   5   3 2727.39   35.41   0
   3   3   9  908.02   22.11   0
  -6  -8  -3   27.40   29.46   0
  -5  -5  -4  855.89   27.26   0
  -4   6   0  329.47   37.49   0
   0  -6   5  382.35   43.67   0
   1  -1   2 3318.12   36.53   0
   1  11   9   33.46   26.39   0
   2   5   5  137.36   23.00   0
   2  10  10  248.32   24.33   0
   3   2  10  530.72   23.63   0
  -6  -9  -2  162.23   31.65   0
  -5  -2  -4 1453.72   28.17   0
  -4  -6  -3 1646.75   29.14   0
  -4   3  -2  731.04   29.76   0
  -3  -1  -3 3440.82   31.64   0
   2  -2   8  394.68   25.55   0
   2  -2   9  384.09   25.98   0
   3   4   8  464.00   20.78   0
   3   6   9 1232.20   22.06   0
   3   7  10  173.86   19.95   0
  -5  -4  -4  157.70   26.23   0
  -5  -3  -4  957.08   26.75   0
  -5   6   0   59.98   36.17   0
  -3  -3  -3 2703.29   32.24   0
  -1   1  -1   10.34   30.07   0
   2  -2   7    7.06   23.50   0
   2  -2  10   29.88   25.08   0
   2   2   4 1132.77   23.74   0
   3   5   8  212.27   20.95   0
  -6  -5  -4  457.62   25.45   0
  -6  -2  -4  227.80   24.71   0
  -5  -9  -1  404.47   34.29   0
  -3  -2  -3 1121.98   27.98   0
  -3   4  -1  463.92   33.62   0
   1   8   5  355.42   30.19   0
   1   9   6  163.08   29.37   0
   2   1   4 3882.98   28.62   0
   2   9   8 1110.19   26.33   0
   3   2   8    6.44   20.37   0
  -6  -4  -4  810.54   27.22   0
  -6  -3  -4  164.94   26.13   0
  -6   3  -2  472.72   28.95   0
  -5   3  -2   10.69   29.38   0
  -4   7   1   45.97   40.83   0
  -3  -7  -1  114.78   34.10   0
   0  11   7  187.20   33.82   0
   1   3   2 1525.18   31.19   0
   2   3   4 1068.95   23.86   0
  -5  -8  -2  331.22   31.60   0
  -5   7   1  122.11   38.02   0
  -4   8   2  248.39   45.40   0
  -2   0  -2  115.71   26.49   0
   1  10   7  -17.06   30.60   0
   3   3   7  469.29   20.93   0
   3   6   8   17.59   20.80   0
  -4  -8  -1  521.99   34.19   0
  -4   0  -3  130.66   25.34   0
  -2  -3  -2 2530.08   34.03   0
   2   0   4  204.28   22.22   0
   2  10   9   97.57   25.75   0
   3   1   8  398.66   22.27   0
   3   4   7  454.72   21.16   0
  -4  -5  -3 1711.21   27.28   0
   2   4   4 2537.44   27.48   0
   2   6   5 1634.37   25.20   0
   3   2   7  420.99   20.17   0
  -5  -6  -3   77.54   27.57   0
   1  -4   4 1218.02   35.46   0
   3   0  10   -2.93   22.94   0
  -6  -9  -1  130.16   31.90   0
  -6  -8  -2  157.76   30.36   0
  -6   4  -1  194.66   28.60   0
  -4  -9   1  144.88   38.02   0
   3   1   7  210.12   20.59   0
   3   7   8  174.44   21.49   0
  -4  -4  -3  381.09   26.66   0
  -2  -2  -2 2133.06   31.18   0
  -2  -1  -2 2922.63   33.25   0
   2  -3   8   10.21   28.96   0
   2  -3   9  271.13   27.73   0
  -6  -6  -3  225.63   29.16   0
  -5  -9   0  108.19   37.71   0
  -4   4  -1  315.75   30.04   0
   1  -5   7  141.31   33.87   0
   2  -3  10  185.82   27.61   0
   3   3   6 1443.65   22.17   0
   3   6   7 1097.38   21.61   0
  -6   2  -2   73.90   27.26   0
  -5  -5  -3  817.20   28.39   0
  -5   4  -1  106.53   32.85   0
  -4  -2  -3 1502.89   27.07   0
  -3  -5  -2 2002.85   31.09   0
  -2  -5  -1  176.53   34.15   0
  -1  -2  -1    5.41   26.23   0
   2  -1   4  191.20   24.10   0
   2   9   7    9.63   25.37   0
   3   2   6  226.50   19.40   0
  -6  -1  -3   10.92   25.83   0
  -5  -1  -3  876.79   28.29   0
  -3  -8   1   80.07   44.40   0
   2  10   8  -24.59   27.75   0
  -6  -5  -3  215.36   26.94   0
  -6   5   0   91.95   31.65   0
   1  -5   6  141.16   34.56   0
   3   9   9  114.86   23.77   0
  -5  -8  -1  -11.48   34.70   0
   3  -1   9  201.94   25.39   0
   3   1   6   -3.89   19.14   0
   3   5   6   12.29   19.98   0
  -6  -9   0  300.82   34.80   0
  -6  -4  -3   21.57   26.21   0
  -6  -2  -3  982.60   27.64   0
  -3   5   0  945.71   38.14   0
   2  11   9  130.75   26.29   0
   3   7   7   28.26   20.94   0
  -6  -3  -3  739.97   27.72   0
  -4  -8   0   20.05   36.77   0
   3  -1   8  261.29   24.01   0
  -6  -8  -1  405.12   33.34   0
  -6   6   1  291.95   34.07   0
  -5   5   0 1004.39   37.68   0
  -4  -9   2  187.79   42.10   0
   2   1   3   23.33   21.69   0
   4   3   9  137.79   22.00   0
  -6   3  -1   68.74   30.57   0
  -5  -9   1  203.97   40.04   0
  -4  -7  -1   -9.09   31.17   0
  -3  -4  -2  371.34   26.52   0
   4   6   9  227.41   21.75   0
  -5  -6  -2  777.53   30.45   0
  -4   5   0   -6.06   36.11   0
  -3  -7   0  103.29   37.07   0
   1  -5   5 1257.51   42.18   0
   1  10   6  559.78   32.94   0
   2   3   3  157.55   22.65   0
   3   2   5  247.43   21.21   0
   3   3   5   56.57   20.83   0
   1   9   5  727.91   36.62   0
   2   0   3  508.76   23.44   0
   3   9   8   13.53   25.31   0
   4   2   9  134.16   23.55   0
   4   4   8   19.37   21.15   0
   4   7   9  506.85   22.31   0
  -6  -6  -2   89.78   28.39   0
  -2   2  -1 2733.33   40.38   0
   1  11   7  146.21   33.38   0
   2   6   4  747.77   28.15   0
   3   1   5  554.83   23.67   0
   3   4   5   90.00   21.22   0
   3  10   9  329.24   25.38   0
   4   3   8  709.54   22.76   0
   4   5   8 1268.69   23.44   0
  -6  -9   1   67.41   33.61   0
   3  -2   9  148.44   26.36   0
  -6   0  -2  133.97   27.36   0
  -5  -8   0  202.58   38.40   0
  -5  -7  -1  454.32   33.93   0
  -5   6   1   85.08   38.52   0
  -3  -1  -2  261.44   26.54   0
   2   9   6  246.35   27.83   0
   2  10   7  177.92   30.55   0
   4   2   8  945.49   22.45   0
   4   6   8  325.04   21.86   0
  -6  -5  -2   14.19   27.77   0
  -5  -5  -2  761.45   29.11   0
  -2  -4  -1  702.26   34.23   0
   2  11   8  269.55   30.21   0
   3  -2   8   45.86   26.73   0
  -7  -3  -2  443.86   26.31   0
  -6  -8   0   30.65   34.42   0
  -6   4   0  498.77   31.82   0
  -5   0  -2   86.83   24.87   0
  -4  -4  -2 1309.78   31.30   0
   2   4   3 1056.10   27.53   0
  -6  -1  -2  290.77   26.92   0
   4   3   7  282.89   22.67   0
   4   4   7 1135.32   23.90   0
   4   7   8   72.82   21.70   0
  -6  -4  -2  548.12   28.43   0
   3  -2   7  814.20   27.11   0
   4   2   7    5.64   21.93   0
  -6  -3  -2  436.91   29.14   0
  -6  -2  -2   51.67   27.84   0
  -5  -1  -2  291.81   26.88   0
  -4  -3  -2  122.44   26.90   0
  -4  -1  -2  836.28   28.54   0
  -6  -1  -9  510.73   34.27   0
  -6   0   3  375.51   24.68   0
  -5   3   8  116.82   28.29   0
  -2   4   9   46.39   42.36   0
   3   3   1  817.66   26.82   0
   3   4  -8   22.70   27.37   0
   4   4  -1  505.65   23.20   0
   4   5   3 1693.28   27.97   0
   5   6  -3  381.66   26.71   0
  -5  -2  -3   98.03   25.70   0
  -5   4   9   10.25   29.02   0
  -4  -2  -3 1541.87   33.22   0
  -4  -1   1 1021.38   28.32   0
  -3  -1  -9   35.90   54.86   0
  -3   3   8  121.95   31.01   0
  -2   0 -10  386.23   76.00   0
   1   1   1 4197.77   48.36   0
   2   3   4 1068.15   37.90   0
  -6   2   6  577.22   26.17   0
  -5  -2  -4 1466.32   31.03   0
  -4  -2  -4  949.10   31.73   0
  -4   3   8  506.21   32.72   0
  -2  -1  -8  220.32   57.39   0
  -2   5  10   40.68   44.60   0
  -2   6  11  -36.56   45.08   0
   1   2 -10  254.18   49.64   0
   4   4   0  123.02   22.94   0
   4   7   7  341.10   32.27   0
  -6  -1   0  131.63   25.37   0
  -5  -1  -9  115.71   42.65   0
  -5   0   3  182.20   24.77   0
  -4   4   9  578.70   34.94   0
  -3   0   3  114.71   27.16   0
   2   2  -8  153.30   34.25   0
   3   3  -7  100.73   31.18   0
   4   5  -7  -23.85   26.91   0
  -4   0   3   27.68   27.65   0
  -4   5  10   55.99   36.98   0
  -3   4   9  252.64   37.22   0
  -3   6  11  148.69   41.63   0
  -6  -1  -8  112.52   31.51   0
  -6   1   4  264.86   28.18   0
  -3   5  10  320.31   39.60   0
   2   1  -4  515.85   29.19   0
   2   1  -3 2866.64   35.97   0
   3   9  11  227.56   43.78   0
  -6  -1  -1  378.34   26.67   0
  -6   0   2  149.09   23.85   0
  -5  -1   0  112.88   28.07   0
   4   4  -6  202.01   27.30   0
   5  10   9   70.51   31.56   0
  -3  -1   0 3291.39   35.67   0
   3   2  -3   58.21   26.43   0
   3   3   2 4027.10   35.09   0
   3   4  -9  554.98   34.91   0
   4   5   4  709.50   25.59   0
   5   5  -3  633.23   27.97   0
   5   5  -2  495.87   24.23   0
   5   6   3   69.62   26.81   0
   5   9   8   62.76   32.67   0
  -6  -1  -7  429.19   34.52   0
  -4  -1   0  212.79   28.18   0
   2   1  -2  140.17   29.43   0
   3   2  -2 2312.27   31.21   0
   5   5   0  408.76   28.28   0
  -6  -1  -2  262.43   26.37   0
   1   1  -9  438.70   54.42   0
   2   2   2 2259.51   36.73   0
   3   3  -8  160.36   34.40   0
  -5   0   2   81.46   27.22   0
  -5   1   4   12.83   27.11   0
  -5   3   7  137.56   28.80   0
  -2  -1  -1  402.44   32.59   0
  -2   0   2  108.74   32.33   0
   4   4   2 1444.67   28.90   0
   5   8   7   74.45   28.75   0
  -6  -1  -6  411.30   30.46   0
  -6  -1  -3  -28.59   26.21   0
  -6   0   1  292.28   26.64   0
  -5  -1  -1   47.62   26.62   0
  -3   0 -10   19.55   55.74   0
   1   0  -3 1836.35   43.70   0
   4   3  -3  202.28   25.24   0
   4   4  -7  -18.13   29.10   0
   5   5  -5  391.04   28.55   0
   5   5   1   10.75   25.13   0
  -6   1   3   29.52   25.08   0
  -5   4   8   52.35   31.03   0
  -4  -1  -8  122.73   42.66   0
   2   2  -9  219.68   39.52   0
   3   2  -6   81.80   29.70   0
   4   3  -2  447.08   25.25   0
   4   8   9   25.84   36.46   0
  -6   3   6  -56.87   25.29   0
  -5   5   9  104.75   30.63   0
  -4   0   2  874.03   29.89   0
  -4   1   4  450.56   27.85   0
  -6   0  -8  143.39   30.98   0
  -5  -1  -2  246.82   28.11   0
  -4   3   7  506.20   31.90   0
  -3   0   2 1540.78   33.91   0
   2   1  -1 3657.74   38.41   0
   4   3  -1   51.83   25.44   0
   5   5   2  764.84   28.79   0
  -6   0   0  457.01   26.63   0
  -3  -1  -1 1217.35   31.80   0
  -3   1   4   43.76   29.35   0
   2   1  -7  315.68   35.82   0
   4   7   8   27.85   34.28   0
  -5  -1  -6  118.27   32.94   0
   3   4   5   56.47   29.74   0
   4   5   5   -5.34   27.66   0
   5  10  10  188.37   33.88   0
  -5   0   1 1265.92   29.43   0
  -4   4   8  -12.09   36.38   0
  -3   3   7  162.11   34.80   0
   3   2   0 2127.79   32.61   0
   3   3   3 2723.04   35.11   0
   4   3  -6   60.31   28.87   0
   4   3   0 2631.97   30.35   0
   4   4  -8  129.08   31.45   0
   4   4   3  406.38   27.44   0
   5   4  -3   57.80   26.35   0
   5   4  -2  114.98   26.70   0
   5   9   9  392.16   33.49   0
   6   6   1  226.16   29.27   0
  -6   1   2 1115.20   26.81   0
  -5  -1  -4    3.08   28.94   0
  -5   1   3  411.05   25.91   0
  -4  -1  -7    2.07   34.23   0
  -2  -1  -7 1416.47   53.26   0
   5   8   8  209.26   34.43   0
   6   7   4  398.68   30.41   0
  -6   0  -7  286.58   28.44   0
  -6   0  -1    8.57   26.18   0
  -4   5   9  146.87   34.72   0
  -1   4   8  427.82   51.32   0
   5   5   3  907.28   29.94   0
   2   5   8  551.33   47.20   0
   5   4  -5  154.91   28.51   0
   5   4   0  458.28   27.19   0
   6   6   2  101.60   27.65   0
  -6   0  -6   57.27   29.47   0
  -4   0  -9   59.03   43.72   0
  -3  -1  -7  249.47   40.44   0
  -3  -1  -2  254.27   30.82   0
   1   0  -2 2456.54   43.97   0
   4   3  -7  484.05   33.02   0
  -6   0  -2  158.76   25.38   0
  -5   0   0   23.43   26.17   0
  -4  -1  -3 1187.55   30.85   0
  -4   0   1  301.91   27.28   0
  -3   7  11  288.06   42.28   0
   5   7   7   89.28   32.85   0
  -6   0  -3  789.21   29.83   0
  -6   1   1   41.76   25.86   0
  -5   4   7   85.26   29.14   0
   2   1  -8  293.76   43.23   0
  -6   2   3   49.44   24.02   0
  -4   1   3  203.71   26.22   0
  -3   5   9  165.55   37.37   0
  -3   6  10  326.39   42.26   0
  -2   4   8   29.69   38.55   0
  -1   2   5  766.48   45.35   0
   2   1   0  188.66   29.79   0
   5   4   1  417.85   27.88   0
   6   5  -1  345.35   25.33   0
   6   6   3  242.54   27.36   0
  -5   1  -9  504.77   35.17   0
  -5   2   4  213.51   29.04   0
  -5   5   8   39.21   30.09   0
   2   2 -10   83.17   43.82   0
   3   2   1   17.87   27.37   0
   6   5   0   59.50   28.60   0
  -5   0  -7   37.93   35.08   0
  -5   1   2  104.43   26.74   0
  -3   0  -9  599.85   51.88   0
  -3   0   1   59.09   28.30   0
  -2  -1  -3    2.79   32.88   0
   4   4   4  142.17   25.88   0
   4   9  11  215.58   40.81   0
   6   8   7  278.66   31.86   0
  -5   0  -1  745.73   28.23   0
  -2   0  -9  161.31   64.25   0
  -2   0   1 2199.62   37.12   0
  -2   7  11   90.92   43.99   0
   2   2   3 4634.81   45.21   0
   4   2  -4   41.28   25.80   0
   4   3  -8  188.90   31.70   0
   5   4  -7  218.93   29.91   0
  -6   1   0  747.20   27.92   0
  -3  -1  -4  176.18   31.74   0
  -2   5   9  407.08   47.92   0
   3   1  -4  676.20   30.13   0
   5   9  10   95.96   35.17   0
  -6   3   4    0.20   25.22   0
  -4   0  -8  109.10   41.44   0
  -3   1   3 1006.98   31.81   0
  -2   2   5  436.34   35.81   0
  -2   6  10  567.41   46.80   0
  -1   5   9  156.31   57.86   0
   1   1 -10   71.31   70.40   0
   3   1  -3  182.43   28.46   0
   3   8  11   -1.22   45.56   0
   4   2  -2  836.44   27.45   0
   4   3   2  115.88   26.93   0
   5   3  -3  384.60   27.46   0
   5   4   2   30.89   27.02   0
   6   6   4   13.39   29.20   0
  -5   0  -2  101.53   26.31   0
  -3   1 -10  155.07   49.80   0
  -1   7  11  346.89   56.46   0
   3   3   4  862.94   33.46   0
   5   8   9  -23.97   31.91   0
  -6   1  -1  267.78   26.12   0
  -4   4   7  662.00   30.87   0
   3   7  10  212.22   45.33   0
   4   2  -6  764.16   31.18   0
  -5   0  -4 1035.83   32.64   0
  -5   1  -8   32.88   32.83   0
  -5   1   1 1129.47   28.29   0
  -1   6  10    9.10   53.14   0
   3   2  -9   19.46   39.03   0
   4   2  -1  810.17   27.75   0
   5   3  -1 2087.86   31.14   0
  -6   1  -2   34.06   24.21   0
  -5   2   3  222.92   25.29   0
  -4   2   4 1705.46   28.24   0
  -4   5   8  208.99   33.72   0
  -2   1   3  779.67   32.58   0
   3   1  -2 5244.04   37.01   0
   5   7   8  825.95   36.00   0
   6   4  -2   56.91   25.93   0
  -6   1  -3  809.19   29.19   0
  -6   2   1 1098.93   29.46   0
  -4   6   9   79.59   30.36   0
   2   1  -9   48.94   44.55   0
   4   6   8  358.49   33.69   0
   5   3  -6 1240.18   29.60   0
   6   4  -1  460.30   27.78   0
  -5   5   7  146.15   28.43   0
  -4   0  -1  311.03   25.99   0
  -3   0   0  219.98   28.14   0
   3   2   2 1685.59   31.07   0
   4   2  -7  803.31   34.67   0
   4   3  -9  139.25   33.56   0
   5   3   0   30.68   26.25   0
   5   4   3  331.12   26.11   0
   6   8   8   57.75   32.96   0
  -3   0  -8  260.31   47.61   0
   6   5   3  206.14   27.28   0
  -5   1   0  797.70   26.89   0
  -2   1 -10  253.33   58.41   0
   2   0  -4  781.02   35.23   0
   4   2   0  992.67   28.03   0
   4   3   3 1035.81   31.84   0
   5   6   7  168.94   31.06   0
  -6   2   0   46.28   25.98   0
  -5   3   4  448.05   28.23   0
   2   1   1  430.94   30.27   0
   3   1  -1  187.85   27.32   0
   5   3  -7   65.02   30.33   0
   6   7   7  708.64   31.71   0
  -4   0  -6  205.08   32.10   0
   1   0  -1 5530.65   52.98   0
   5   3   1  157.56   26.76   0
  -6   3   2  240.86   23.42   0
  -5   2   2  965.13   28.24   0
  -3   4   7   18.46   30.38   0
   4   2  -8  147.06   33.53   0
   6   4   1  219.52   27.36   0
  -6   2  -1  324.51   23.87   0
  -5   1  -6  447.89   29.59   0
  -5   1  -1  135.42   26.41   0
  -5   2  -8  124.35   28.60   0
  -4   0  -3  177.02   26.77   0
  -3   2   4  124.52   27.07   0
   2   0  -3 2541.63   37.63   0
   4   5   7    4.19   32.04   0
  -6   2  -2  -36.53   23.66   0
  -3   1   2  278.24   25.82   0
  -3   7  10   15.82   36.83   0
  -2   0   0 1492.01   33.55   0
   3   1  -8   12.74   35.08   0
   5   3  -8   49.72   31.27   0
   5   4   4  243.74   27.25   0
   6   5   4  423.60   29.15   0
  -4   2   3  491.44   24.38   0
  -3   0  -1 2780.55   32.77   0
  -3   5   8  269.69   31.84   0
  -3   6   9  642.12   37.09   0
   4   2   1  347.20   26.63   0
   5   2  -3 1858.96   29.66   0
   6   9  10  167.28   33.71   0
  -6   3   1  188.53   24.07   0
   2   0  -7  346.66   39.66   0
   6   3  -3  227.32   28.43   0
   6   4   2  583.55   28.71   0
   6   8   9  593.76   35.08   0
  -5   1  -3   17.04   26.57   0
  -5   2   1   75.20   26.47   0
  -4   2  -9  394.34   35.87   0
  -3   0  -7   27.25   35.52   0
  -2   0  -8  267.54   53.99   0
   3   1   0 3236.56   34.43   0
   5   2  -2  254.07   26.46   0
   5   3   2   41.07   25.75   0
   5   7   9   40.71   37.10   0
   6   3  -2  665.80   26.66   0
  -5   3   3  118.35   25.07   0
  -4   5   7   17.51   28.79   0
  -4   7   9   41.02   29.77   0
  -1   1 -10  326.94   64.44   0
   3   3   5   82.31   31.16   0
   4   1  -3 1062.48   28.77   0
   4   8  11  348.25   41.83   0
   5   2  -6   82.04   28.25   0
   6   3  -5  260.88   28.93   0
  -5   2  -7   61.68   26.35   0
  -4   6   8  109.47   29.15   0
   2   0  -2  140.34   29.70   0
   2   1 -10  183.09   56.60   0
   3   2   3 1136.22   31.27   0
   4   1  -6 1346.69   33.00   0
   4   2  -9  214.27   36.74   0
   4   7  10  330.89   38.89   0
   6   3  -1   18.15   26.57   0
   6   7   8   91.20   33.83   0
   4   3   4   29.89   27.67   0
   5   2  -1 1847.31   29.65   0
  -4   1  -7  192.69   35.07   0
  -4   3   4    3.45   24.19   0
  -3   0  -2  518.06   26.04   0
  -3   3   5  339.86   28.83   0
  -2   4   7  534.77   35.24   0
  -2   8  11  339.48   40.16   0
   3   1  -9  925.75   40.99   0
   4   1  -2   93.77   25.64   0
   5   2  -7  511.59   31.18   0
   5   6   8  333.73   36.11   0
  -5   4   4    6.04   26.12   0
  -2   2   4   46.63   31.89   0
   6   3   0  758.43   26.92   0
  -5   2  -6    9.69   26.93   0
  -4   2   2  339.58   23.89   0
  -2   1   2 3188.43   37.13   0
   2   0  -8  269.21   46.55   0
   4   1  -7   38.03   31.27   0
   4   2   2   56.86   26.56   0
  -5   3   2  902.04   27.44   0
  -3   0  -3  162.53   27.94   0
  -3   1   1 2576.26   31.36   0
   5   2   0  521.30   27.86   0
   5   3   3  105.73   25.22   0
   6   6   7  354.13   30.10   0
  -5   2  -1  181.91   26.28   0
  -4   2  -8  178.45   31.78   0
  -2   0  -1  449.88   29.56   0
  -2   5   8  235.87   33.79   0
  -2   7  10  210.55   38.93   0
   6   3   1  151.08   27.37   0
  -4   1  -6  419.20   28.81   0
  -3   0  -4   69.44   28.45   0
  -3   2   3  789.32   26.56   0
   3   0  -4  697.46   28.42   0
   3   1   1 1177.66   28.91   0
   5   2  -8  277.53   30.87   0
  -5   2  -2  412.90   24.54   0
  -3   8  10  207.27   30.97   0
  -2   6   9    3.26   34.05   0
   2   1   2 3014.08   38.59   0
   4   1  -8  637.63   36.64   0
   5   5   7  383.88   31.49   0
  -5   2  -3  145.25   24.72   0
  -5   4   3  236.93   23.86   0
  -4   1  -2  165.55   24.14   0
  -1   0  -8  409.53   57.68   0
   3   0  -3  106.72   28.06   0
   6   4   4  835.15   29.43   0
   6   8  10  107.98   33.28   0
  -4   1  -3 1304.13   26.82   0
   5   2   1   41.27   25.88   0
   6   2  -3   91.47   26.58   0
  -4   2   1 1790.50   27.29   0
  -4   3   3 1041.58   25.22   0
  -4   6   7  117.40   26.06   0
  -3   5   7  498.19   29.88   0
  -3   7   9  222.74   30.20   0
  -2   1  -9   -5.02   44.79   0
   3   0  -7  269.63   34.52   0
   6   2  -2  963.70   27.38   0
   6   3   2  404.01   28.50   0
   6   7   9  250.75   33.09   0
  -3   2  -9  142.96   36.02   0
  -3   6   8  141.98   32.17   0
   4   1   0  186.96   25.96   0
   5   1  -4  273.32   26.23   0
   6   2  -6  251.41   28.64   0
  -5   3   0  328.64   24.45   0
  -4   2  -7  140.87   29.58   0
   3   1 -10  420.97   45.33   0
   5   1  -6  224.42   30.34   0
   5   1  -3  220.27   25.02   0
   5   2  -9   38.93   32.65   0
  -5   3  -5  184.75   23.20   0
  -5   4   2   16.08   23.77   0
  -4   3  -8   91.86   26.87   0
   3   0  -2 1543.02   29.12   0
   4   2   3 1488.77   30.28   0
   5   3   4  994.57   26.85   0
   6   2  -1  535.82   27.33   0
  -5   3  -1  436.71   23.74   0
  -3   3   4  367.90   25.75   0
  -2   0  -2  137.00   27.45   0
  -2   3   5 1706.67   32.91   0
  -1   8  11    2.30   36.75   0
   3   2   4  790.21   32.17   0
   5   1  -2  673.93   25.88   0
   6   6   8  341.58   32.66   0
  -4   2   0  -21.14   24.10   0
  -4   4   4 1418.61   25.85   0
  -3   1  -7  317.52   29.80   0
  -1   2   4 1470.68   38.34   0
   1   0   0    8.01   26.04   0
   3   0  -8  579.54   40.82   0
   5   1  -7  150.36   31.97   0
  -5   3  -3  589.41   25.08   0
  -5   3  -2   -4.85   21.68   0
  -5   5   3  238.18   22.08   0
  -4   2  -6   25.40   26.09   0
  -3   2   2 1488.81   29.15   0
  -2   9  11  160.74   32.60   0
   3   6  10    4.92   50.70   0
   6   2   0   97.63   27.54   0
   6   3   3  786.81   29.34   0
  -5   4   1  953.93   26.03   0
  -4   3   2    8.60   23.55   0
  -3   9  10  104.32   27.13   0
   4   0  -4   24.76   24.88   0
   4   4   7 1013.63   34.85   0
   5   1  -1  368.75   26.06   0
  -4   7   7  202.81   25.96   0
  -3   1  -1  213.02   26.94   0
  -2   1   1  319.93   25.76   0
   3   1   2  268.06   26.53   0
   4   1   1  677.05   26.81   0
  -4   2  -1   85.40   23.63   0
  -4   3  -7  559.98   28.37   0
  -3   3  -9   50.77   32.18   0
  -2   0  -3  472.36   30.15   0
  -1   5   8  335.45   35.23   0
  -1   7  10  433.05   39.40   0
   3   0  -1   84.24   26.43   0
   4   0  -3  -10.87   26.86   0
   5   1  -8   30.81   30.97   0
  -5   4   0  277.09   23.80   0
  -5   5   2  114.15   21.43   0
  -3   1  -6   76.56   27.94   0
  -3   4   5  149.21   25.03   0
  -3   8   9   40.44   28.10   0
  -2   2   3 3191.24   34.24   0
  -1   6   9  578.76   40.98   0
   5   5   8  158.58   35.95   0
   6   2   1  612.64   27.69   0
  -5   4  -1   57.20   21.95   0
  -4   2  -2  220.47   22.72   0
  -2   0  -4  201.85   30.67   0
  -2   8  10   21.67   32.78   0
   3   5   9  654.15   51.06   0
   4   0  -7  530.88   30.68   0
  -5   4  -2  410.34   22.23   0
  -4   2  -3  973.71   23.65   0
  -4   4   3   87.98   23.34   0
  -2   1  -8  643.55   40.69   0
   4   7  11   20.28   44.94   0
  -4   3   1  241.41   24.05   0
  -3   1  -2  948.07   26.88   0
  -3   7   8  444.09   30.12   0
   4   0  -2  865.72   27.01   0
   4   1 -10  354.83   42.06   0
   5   2   3   72.49   24.43   0
   6   1  -3  362.04   25.62   0
   6   3   4  173.44   29.59   0
  -4   3  -6  -17.36   26.10   0
  -3   6   7  342.49   27.68   0
  -2   7   9  875.75   35.17   0
   4   2   4  940.57   28.54   0
   6   1  -2   47.40   27.13   0
  -4   5   4  615.90   25.22   0
  -3   1  -3  227.79   26.31   0
  -3   2   1  156.95   24.73   0
  -3   3   3   19.71   25.14   0
  -2   2  -9  383.40   39.84   0
  -2   6   8 1766.73   31.84   0
   4   0  -8  122.87   36.81   0
   4   6  10  179.33   40.26   0
   5   1  -9  219.23   34.03   0
   6   1  -7   20.09   29.75   0
   6   2   2   59.89   27.54   0
   6   6   9  -38.71   32.80   0
  -4   3   0   50.85   23.80   0
  -3   2  -7  831.35   32.17   0
  -3   3  -8  705.47   32.54   0
   2  -1  -5 1081.27   36.05   0
   4   0  -1  300.36   25.71   0
   5   4   7   90.87   29.67   0
  -4   4   2  527.74   24.78   0
   2   1   3  -25.67   29.18   0
   5   0  -6  134.49   30.81   0
  -4   3  -1    8.81   25.40   0
  -4   4  -6   61.65   24.73   0
   2  -1  -4 3490.68   40.71   0
   5   0  -3  146.75   24.78   0
  -3   4   4  505.01   24.33   0
  -2   1   0  479.83   25.34   0
  -1   9  11    3.23   35.64   0
   5   0  -7  164.24   30.95   0
   6   5   8  124.10   33.33   0
  -4   3  -3   66.96   24.73   0
  -4   3  -2  770.10   22.93   0
  -4   5   3  514.71   23.96   0
  -3   2   0 2520.67   28.92   0
  -3   8   8  210.87   28.58   0
  -2   1  -7   27.90   32.08   0
  -2   3   4  324.15   27.91   0
  -2   9  10  198.32   29.40   0
   3   1   3 3398.46   35.42   0
   3   4   8  442.41   38.95   0
   4   0  -9   42.17   39.75   0
   5   0  -2  109.22   25.08   0
   6   1   0  151.20   27.59   0
  -4   4   1   79.22   23.46   0
  -3   2  -6  170.18   26.72   0
  -3   4  -8  107.76   27.38   0
   5   7  11  100.72   39.04   0
   6   2   3 1007.13   28.03   0
  -4   4  -5  363.66   23.67   0
  -4   6   4  -41.92   23.93   0
  -3   3   2  365.75   26.15   0
  -3   5   5  142.34   25.08   0
  -3   7   7   53.29   26.57   0
  -1   3   5   44.85   28.75   0
   2  -1  -3  901.98   31.20   0
   3  -1  -4   23.65   28.02   0
   4   0   0 2698.68   30.11   0
  -3   3  -7   24.92   30.13   0
   5   1   2  257.92   25.34   0
  -4   4   0  280.91   24.21   0
  -2   2   2  134.76   24.27   0
   2   0   1  487.63   29.05   0
   3  -1  -7  566.70   36.20   0
  -4   5   2  479.55   23.82   0
  -3   2  -1 1187.14   26.07   0
  -2   8   9  366.31   31.42   0
   3  -1  -3  988.22   29.11   0
   6   4   7  417.88   28.89   0
  -4   4  -3  621.28   25.48   0
  -4   4  -1  324.24   23.67   0
  -2   4   5  528.68   27.60   0
   3   0   1 2766.59   31.63   0
   4   1   3 1153.76   28.62   0
   6   0  -6   84.57   27.69   0
  -4   6   3   -0.96   21.55   0
  -4   7   4  144.23   22.05   0
  -3   2  -4   22.14   24.39   0
  -3   2  -2  560.16   26.00   0
  -2   1  -1 1536.79   28.54   0
   4  -1  -4  423.12   25.42   0
  -4   5   1  616.91   23.53   0
  -3   2  -3 1230.03   25.11   0
  -3   4   3  943.41   24.25   0
   6   0  -2  130.97   26.13   0
  -3   3   1   24.42   22.56   0
   5   0   0   22.25   25.55   0
   6   2   4  271.57   28.03   0
  -1   7   0   69.93   28.92   0
   0   9   1  598.90   30.93   0
   1   6   3  418.68   30.25   0
   2  -4  -2 2001.68   46.76   0
  -3   4  -5  280.43   37.95   0
  -3   5  -6    6.44   25.44   0
  -2   7  -3  198.67   28.26   0
   0  -8  -9    9.36   28.39   0
   1  -8  -8   76.91   27.46   0
   4  -6  -4   15.18   31.96   0
   2  -5  -3  135.97   29.97   0
   2  10   3   51.20   25.95   0
   5  10   5   64.93   34.75   0
  -3   3  -5   18.38   26.18   0
  -1   3   0 2969.98   36.17   0
  -1   6   0  102.80   23.73   0
  -1   8  -1   87.11   25.82   0
   5   8   5  286.66   46.58   0
   5   9   5  174.10   41.48   0
   6  10   5  305.26   43.60   0
  -2   4  -2   57.70   25.77   0
  -2   7  -4  -16.46   25.39   0
   0   8   1  230.47   26.15   0
   1   9   2  368.72   26.70   0
  -3   2  -5 2830.20   37.77   0
  -3   4  -6  137.56   29.60   0
  -2   3  -2  644.55   27.08   0
  -1   4   0  252.66   25.48   0
   3  -7  -5   -3.41   29.06   0
  -3   4  -7  301.70   32.16   0
  -1   7  -1  612.25   28.32   0
   0  -5  -4 1971.51   33.74   0
   0   7   1  137.19   28.80   0
   1   8   2  117.62   27.51   0
  -6   7  15   13.04   55.13   0
  -5   7  10   98.61   58.94   0
  -4   7  17  -86.26   58.75   0
  -2   4  20  -84.20   60.25   0
  -2   6   7  248.85   40.20   0
  -2   7  16  139.59   59.48   0
  -1   6   8   47.27   37.64   0
  -1   7  13  445.73   50.36   0
  -1   7  14  -11.84   47.57   0
   0   2  19   27.45   50.50   0
   1   0  18   53.21   47.99   0
   1   1  18  -31.35   47.14   0
   1   5   9   50.06   40.85   0
   1   5  15  -61.05   46.98   0
   2   3   7  333.86   34.98   0
   2   4  10   80.19   35.41   0
   3   1   7  242.03   34.51   0
   3   2  11    2.76   39.28   0
  -8   6  15   13.04   44.98   0
  -6   7  11  -33.25   53.79   0
  -4   6  19   89.54   60.39   0
  -3   5  20   62.98   57.88   0
  -3   6  19 -152.03   69.42   0
  -3   7  17   -2.51   68.22   0
  -1   7  12   -2.02   42.85   0
  -1   7  15   -4.19   61.84   0
   0   3  19    7.42   52.62   0
   0   6  16  109.20   52.66   0
   1   2  18  -37.59   53.51   0
   2   2  16   50.70   40.81   0
   3   2  12  286.74   41.73   0
  -6   7  16  -11.49   58.41   0
  -5   6  19  -43.48   58.75   0
  -2   7  17    5.23   63.97   0
  -1   5  19   30.82   53.60   0
  -1   6  18   85.87   62.37   0
   1   3  18   16.62   55.01   0
   1   5  16   57.30   50.69   0
   3   0  14   21.66   42.08   0
   3   2  13  -28.79   46.41   0
  -4   7  18  107.76   64.35   0
  -3   7  18  116.16   71.85   0
  -2   5  20 -155.57   53.49   0
  -2   6  19   39.61   60.73   0
  -1   7  16   20.72   59.96   0
   0   6  17  143.15   56.27   0
   2   1  17  -33.96   46.48   0
   2   2   5  108.34   30.81   0
   2   3  16  -44.24   43.57   0
   3   1  14   23.05   41.52   0
  -7   7  13  100.90   50.62   0
  -7   7  14   59.75   48.28   0
  -6   6   7  -28.91   53.32   0
  -6   7  17  -63.36   51.61   0
  -5   7   9  405.22   54.48   0
  -3   6  20  -77.66   60.48   0
  -3   8  14  -99.29   65.64   0
  -2   7  18   75.69   66.13   0
  -1   7  17  -52.42   64.79   0
   0   2   2 1831.03   33.51   0
   0   2  20  -21.10   53.39   0
   1   5  17   13.72   51.74   0
   1   6  12  334.98   43.03   0
   1   6  13   65.27   40.14   0
   1   6  14  425.50   43.64   0
   2   2  17   81.57   44.36   0
   3   2  14  247.36   46.20   0
  -7   7  15  -11.18   48.52   0
  -6   7  10   89.08   51.87   0
  -3   8  15  154.27   60.17   0
  -1   7  10  448.44   41.11   0
   0   3  20  -64.44   55.55   0
   0   7  13   24.80   47.17   0
   0   7  14  219.25   47.37   0
   0   7  15   61.90   51.04   0
   1   2  19  -78.29   50.99   0
   1   4   6 1312.87   34.66   0
   1   6  11  203.00   40.54   0
   1   6  15   27.99   49.18   0
   2   5  13  279.69   42.85   0
   3   0  15   45.31   41.86   0
  -7   7  12    0.95   48.88   0
  -7   7  16   64.66   48.04   0
  -4   6   6  678.82   43.85   0
  -4   7  19  155.47   62.52   0
  -3   7  19   30.62   62.06   0
  -3   8  16 -123.48   57.14   0
  -2   6  20   17.04   59.08   0
  -2   8  13   61.98   50.86   0
  -2   8  14  127.28   55.39   0
  -2   8  15    7.90   61.75   0
   0   6  18   51.41   55.89   0
   0   7  12  480.10   43.14   0
   1   3  19  127.81   54.17   0
   2   3  17   54.33   45.10   0
   2   4   8   10.99   32.48   0
   2   5  12   15.36   35.44   0
   3   3  13  125.78   40.17   0
  -6   7  18  -54.96   47.34   0
  -5   8  13  -37.07   54.96   0
  -5   8  14  100.14   51.00   0
  -5   8  15  122.42   51.12   0
  -3   8  17   86.72   63.92   0
  -2   7  19  -17.37   65.56   0
  -2   8  16  141.17   59.04   0
  -1   6   7  892.29   35.24   0
  -1   7  18  -45.06   64.34   0
   0   7  16  110.48   54.16   0
   1   6  16   65.60   48.94   0
   3  -1   4  352.36   36.48   0
   3   2  15   19.28   42.52   0
  -7   7  11   61.85   49.09   0
  -5   6   6  165.29   42.03   0
  -5   8  16  -69.93   52.78   0
  -4   7   8   56.85   43.76   0
  -2   8  12  237.08   46.86   0
  -2   8  17  -29.63   67.17   0
  -1   5   5 1399.58   31.75   0
   0   5   6 1265.20   33.35   0
   0   6   8  507.86   34.99   0
   0   7  11   75.86   38.46   0
   0   7  17  293.39   55.15   0
   1   4  19  -13.45   48.47   0
   2   1  18    9.67   43.80   0
   2   2  18   40.91   47.22   0
   2   3   6   51.90   26.87   0
   2   4  17   19.51   45.84   0
   3   3  14  240.78   42.34   0
  -5   8  12   54.55   51.73   0
  -4   8  11  192.25   49.76   0
  -3   5   4 1705.36   38.27   0
  -3   7  20   98.29   55.27   0
  -3   8  18  162.29   60.00   0
  -1   6  20   76.81   50.10   0
  -1   7   9  376.77   36.17   0
  -1   8  13  286.27   42.92   0
  -1   8  14   71.82   50.08   0
  -1   8  15  206.34   56.99   0
   0   6  19  -41.37   54.05   0
   1   2   3  672.19   27.90   0
   1   6  17   40.13   51.32   0
   2   5  10  149.02   35.83   0
   3   1  16   24.70   41.88   0
   4  -1   9   67.29   37.78   0
   4  -1  10  177.74   40.08   0
  -6   7   9  198.81   48.44   0
  -6   8  14  124.70   49.73   0
  -6   8  15   48.40   50.57   0
  -2   7  20    1.57   61.46   0
  -2   8  11  375.15   46.52   0
  -2   8  18   91.69   65.88   0
  -1   5  21  -46.22   49.53   0
  -1   7  19  -26.20   57.79   0
  -1   8  16   71.20   52.57   0
   1   2  20 -102.59   49.35   0
   2   3  18  131.22   43.92   0
   3   2  16   58.81   47.60   0
   3   3  15   -4.80   44.34   0
   4  -1  11  151.35   41.30   0
  -6   8  13  -31.99   48.47   0
  -6   8  16   57.13   46.76   0
  -5   5   4   44.24   42.03   0
  -5   7   8  278.01   44.39   0
  -1   8  12  250.09   39.89   0
  -1   8  17  209.48   58.62   0
   0   7  10  738.79   37.75   0
   0   7  18   35.33   57.40   0
   1   3  20 -120.74   48.92   0
   1   5   7  303.39   31.28   0
   1   6  18   61.73   49.19   0
   1   7  13  359.27   41.48   0
   1   7  14   51.52   42.84   0
  -5   8  11    8.43   48.62   0
  -3   8  19   14.54   53.61   0
  -1   2   1  576.12   28.11   0
   1   4  20   81.91   50.63   0
   1   6   9  777.42   36.86   0
   1   7  16   -0.32   50.53   0
   2   4  18  -34.54   43.98   0
   2   5   9  454.06   34.04   0
   2   6  13  132.83   38.26   0
   2   6  14  -60.20   44.09   0
   3   3  16  134.67   44.11   0
   3   4  14  -65.67   38.45   0
   4  -1   8  352.96   37.01   0
  -6   8  12   10.84   48.28   0
  -6   8  17   83.20   43.56   0
  -4   8  10   81.91   45.50   0
  -2   8  19  160.80   59.41   0
  -1   6  21   49.42   53.75   0
  -1   7  20   88.38   56.08   0
  -1   8  18  -35.40   59.97   0
   0   6  20   64.33   51.15   0
   0   7  19  133.60   59.73   0
   0   8  14  203.84   41.71   0
   0   8  15  138.65   49.13   0
   0   8  16   43.87   54.44   0
   1   7  12   -5.50   38.53   0
   2   2  19   22.81   47.02   0
   2   6  15  186.72   45.38   0
   3   4  15   26.91   40.49   0
  -2   8  10   50.99   39.84   0
  -1   8  11  -26.90   37.33   0
   0   4   4 2787.42   32.09   0
   0   8  13  242.02   40.82   0
   1   7  17    9.15   46.75   0
   2   3  19   19.02   47.12   0
   3   1  17    3.80   39.71   0
   3   2  17   -3.05   41.22   0
   4  -2   7  107.31   37.84   0
   4   1  10   59.80   32.79   0
  -6   6   6  149.23   42.79   0
  -3   8  20   94.83   57.14   0
  -3   9  17   26.80   52.75   0
  -2   9  15   93.90   50.60   0
  -2   9  16   24.13   53.49   0
  -1   3   2 1065.77   28.74   0
  -1   7   8  595.18   35.77   0
  -1   8  19  110.22   55.94   0
   0   6   7  136.91   29.75   0
   0   7   9  524.52   34.22   0
   1   7  11   68.96   35.77   0
   2   6  11  -18.78   34.30   0
   3   4  16    0.09   43.68   0
   4   1  13   53.24   39.12   0
  -5   8  10  462.37   45.05   0
  -4   9  14   71.08   48.96   0
  -3   7   7   34.80   35.97   0
  -2   8  20   -7.82   55.58   0
  -2   9  14  -28.67   50.14   0
  -2   9  17   95.13   57.30   0
  -1   6   6  402.73   30.09   0
   0   8  12   67.26   38.53   0
   0   8  18    7.09   52.59   0
   1   4   5 1155.80   27.91   0
   2   4  19   64.05   48.91   0
   3   3  17   78.14   41.48   0
  -7   8  14    4.44   39.82   0
  -7   8  16   46.75   38.62   0
  -6   7   8   65.66   43.84   0
  -6   8  11   -9.10   44.39   0
  -5   9  15   95.61   45.72   0
  -5   9  16   54.87   46.67   0
  -4   7   7  180.15   37.44   0
  -4   9  13   62.30   50.74   0
  -3   9  18  -36.41   54.41   0
  -2   9  13  187.46   48.38   0
  -2   9  18   92.80   61.59   0
  -1   9  15  276.96   53.46   0
  -1   9  16  144.39   52.50   0
   0   7  20  -40.87   46.60   0
   4  -1   7  182.01   34.10   0
   4   1  14   68.24   41.16   0
   4   2  11  211.64   33.56   0
   4   2  12    0.71   36.55   0
   4   2  13  229.77   39.34   0
  -7   8  13  -51.40   38.75   0
  -5   9  14  173.28   44.35   0
  -5   9  17    4.42   48.78   0
  -1   8  10  215.95   34.90   0
  -1   8  20  -80.77   52.91   0
  -1   9  14  223.63   47.78   0
  -1   9  17  157.91   53.85   0
   1   6   8  291.97   29.55   0
   1   8  15   45.84   45.03   0
   2   5  19   61.55   45.03   0
   3   4   9   -5.90   29.12   0
   3   4  17   20.89   39.81   0
  -4   6   5  512.11   35.03   0
  -4   8   9  106.63   40.43   0
  -3   6   5  106.59   33.84   0
  -3   9  19   99.88   54.26   0
  -2   9  12   14.18   45.05   0
  -2   9  19 -102.70   56.76   0
  -1   4   3  363.26   25.98   0
  -1   9  18   84.29   59.71   0
   0   8  11  358.31   35.02   0
   1   5  21   42.61   46.59   0
   1   8  14   63.11   38.66   0
   2   2   4 1122.05   26.89   0
   2   3  20   -1.88   45.68   0
   2   7  14  -21.85   39.03   0
   2   7  15   34.58   43.20   0
   3   2  18   -0.15   40.61   0
   3   5  11   -8.55   29.99   0
   3   5  16  -49.45   39.36   0
   4   2  10  207.48   31.58   0
   4   2  14   27.02   41.72   0
  -5   7   7  -11.68   38.13   0
  -5   9  13   26.88   43.94   0
  -5   9  18  -30.03   43.21   0
  -4   9  12  123.85   46.11   0
  -1   9  13   23.03   42.20   0
   0   5   5  -18.45   24.83   0
   1   8  13  202.94   39.23   0
   1   8  17   52.46   46.24   0
   2   4  20   63.20   47.86   0
   2   7  13  -48.78   33.50   0
   3   3   7  516.80   28.45   0
   3   3  18  -16.86   41.35   0
   4   1  15  -24.33   40.35   0
  -1   8  21  -44.78   49.31   0
  -1   9  19  135.45   56.57   0
   0   8  20   28.28   49.71   0
   0   9  15  157.87   49.66   0
   0   9  16  -26.49   52.04   0
   1   5   6 1014.38   26.31   0
   1   8  18  -11.46   52.02   0
   2   1   3    2.03   22.30   0
   2   7  12  240.37   35.14   0
   3   4  18  107.25   42.62   0
   3   5  17    5.91   41.19   0
   4   2  15  -17.28   39.52   0
   4   3  13  107.95   37.68   0
   4   3  14   29.16   37.12   0
  -6   8  10   -1.22   42.97   0
  -6   9  16   23.13   42.24   0
  -6   9  17   90.20   41.07   0
  -5   8   9   48.77   44.24   0
  -2   9  20    8.39   51.59   0
  -1   9  12  184.68   39.43   0
   0   9  14   98.84   39.94   0
   0   9  17  119.73   50.80   0
   1   7  20   92.55   48.32   0
   1   8  12  444.91   36.99   0
   2   4   6 1079.19   27.91   0
   2   5  20   10.25   46.51   0
   3   5  10  594.09   30.40   0
   3   6  13    9.32   39.45   0
   4   0   7  742.75   33.42   0
   4   2   9  130.73   29.76   0
   4   3  11  109.58   31.68   0
  -6   9  14  -40.75   40.17   0
  -5   6   5  184.80   38.78   0
  -5   9  12   88.16   43.21   0
  -4   9  11  158.18   47.88   0
  -1   7   7   79.87   30.47   0
   0   8  10    7.90   32.56   0
   0   9  13  312.78   39.57   0
   0   9  18   67.61   51.58   0
   1   7   9  140.71   30.92   0
   2   6   9  452.63   32.44   0
   3   0   4   54.18   26.65   0
   3   4   8  423.46   27.53   0
   4  -2   6    3.31   37.14   0
   4   3  15   65.77   37.96   0
  -3   3   1   21.93   34.08   0
  -2  10  16  -39.94   49.79   0
  -2  10  17   90.10   51.37   0
  -1   5   4  224.07   24.64   0
  -1   9  20  -22.96   55.03   0
   1   8  19  -36.06   48.86   0
   2   7  11  452.40   34.03   0
   3   3  19  -24.76   43.17   0
   3   5  18    5.09   38.77   0
   3   6  12   70.63   34.68   0
   4   2  16   59.91   40.77   0
   4   3  10  462.98   30.49   0
   4   4  13   10.54   36.70   0
  -6   9  13  124.31   41.08   0
  -4  10  16   65.73   43.14   0
  -4  10  17   33.14   44.32   0
  -3   8   8  253.06   37.16   0
  -2  10  15    7.80   47.01   0
   0   6   6   37.25   26.12   0
   0   8  21  -41.64   46.14   0
   0   9  19   83.96   51.62   0
   1   6   7    3.63   27.54   0
   1   8  11   29.53   33.90   0
   2   5   7  197.14   28.17   0
   2   6  20   29.75   43.83   0
   2   8  15   18.57   42.58   0
   4   4  12  204.81   34.33   0
   4   4  14  113.90   38.65   0
  -4  10  15   98.93   42.76   0
  -4  10  18   73.87   44.81   0
  -1  10  15  -84.23   47.34   0
  -1  10  16  177.45   46.79   0
   0   9  12   45.47   35.01   0
   1   8  20   24.57   44.98   0
   1   9  15    0.42   43.09   0
   1   9  16  125.44   46.30   0
   1   9  17  135.46   46.08   0
   2   8  14  230.10   36.23   0
   3   4  19   46.43   41.37   0
   3   5   9  649.51   31.95   0
   3   6  11  445.85   33.05   0
  -5   9  11   12.48   44.08   0
  -4   8   8   70.42   36.93   0
  -4  10  14  115.59   43.68   0
  -3   4   2  155.80   30.67   0
  -3   7   6  669.54   35.36   0
  -3   9  10   78.94   40.56   0
  -1   9  21  -47.69   48.38   0
  -1  10  18  -48.29   53.31   0
   0   9  20   68.35   48.48   0
   1   9  14  254.82   37.71   0
   1   9  18   32.96   51.79   0
   2   8  13   66.60   35.85   0
   4   2   8  900.82   30.15   0
  -6   8   9  149.27   42.49   0
  -6   9  12   -6.26   42.05   0
  -5  10  16  -42.88   41.45   0
  -4   7   6   93.17   34.69   0
  -2  10  20  -44.65   52.90   0
  -1  10  14  174.68   44.50   0
  -1  10  19  -49.13   51.30   0
   2   7  10   16.97   32.19   0
   2   8  18  110.96   44.03   0
   3   7  14  -11.49   36.55   0
   4   3   9  128.95   28.01   0
   4   4  16  107.91   38.42   0
  -5  10  15   54.11   40.46   0
  -5  10  18   51.51   39.20   0
  -4   9  10  103.73   42.49   0
  -1   6   5  328.23   25.61   0
   0  10  16 -114.75   46.64   0
   0  10  17  144.34   49.53   0
   1   9  19   72.63   47.96   0
   2   6   8  994.30   30.83   0
   2   6  21  -88.58   40.84   0
   3   7  13  114.68   35.27   0
   4   3  17  118.64   38.04   0
   4   5  14   55.55   35.89   0
   4   5  15   -0.29   40.11   0
  -5   8   8    9.79   43.06   0
  -5  10  14   38.63   42.43   0
  -4  10  13    1.99   43.72   0
  -1  10  13  257.24   43.76   0
  -1  10  20  -33.02   49.44   0
   0   7   7  696.57   29.14   0
   0   9  11   87.65   32.86   0
   0  10  15    4.57   45.54   0
   1   8  10  525.51   30.90   0
   1   8  21  -33.52   44.34   0
   2   8  12   51.02   34.76   0
   2   8  19  137.46   40.86   0
   3   4   7  447.83   27.07   0
   3   4  20   20.01   42.21   0
   4   4  17   40.92   39.89   0
  -3  10  12  -89.66   43.81   0
   0  10  14  179.89   42.45   0
   0  10  19  110.98   49.78   0
   3   7  12   33.09   31.47   0
   4   5  16   73.41   38.77   0
  -4   5   3  426.19   35.98   0
  -3   5   3  355.42   30.13   0
   1   4   4  568.32   21.16   0
   2   9  16  -27.10   44.48   0
   3   5   8  227.64   29.90   0
   3   5  20   -9.39   43.49   0
  -6  10  16  -36.78   38.32   0
  -5   7   6  137.30   39.44   0
  -5   9  10  113.24   42.47   0
  -5  10  13   -2.74   41.92   0
  -4  10  12   22.87   43.08   0
  -2  11  18   93.15   50.04   0
  -1  10  12   25.24   40.06   0
  -1  10  21   -1.01   45.58   0
   0  10  13  -46.79   40.97   0
   0  10  20   65.70   50.03   0
   1   3   3   14.68   19.98   0
   1   5   5 1665.18   26.60   0
   2   8  11  405.69   32.73   0
   2   9  15  175.40   43.95   0
   3   7  19  -48.54   45.09   0
   4   0   6  144.13   28.95   0
   4   5  17   58.51   37.40   0
  -6  10  15   62.79   37.70   0
  -3   9   9  291.53   35.97   0
  -2  11  19  -44.96   48.71   0
  -1   7   6  549.49   28.40   0
  -1  11  17  124.09   49.31   0
   1   9  21  -52.87   46.37   0
   1  10  15   20.60   45.24   0
   1  10  18   83.47   48.54   0
   2   4   5  636.09   24.27   0
   2   9  14   24.74   36.05   0
   3   7  11  763.23   33.98   0
   3   8  15  124.27   40.45   0
   3   8  16  -27.59   41.01   0
   4   4  18   40.49   36.50   0
   4   6  16  -28.51   40.89   0
  -4  11  17   95.06   43.33   0
  -4  11  18   -5.37   42.08   0
  -3   8   7   85.28   33.48   0
  -3  11  15  185.99   43.19   0
  -1  11  16   43.55   44.33   0
  -1  11  19   58.80   47.47   0
   0   4   3  959.93   24.38   0
   0   8   8   45.29   31.06   0
   0  10  21  -11.57   48.47   0
   1   6   6  402.05   25.72   0
   1   8   9  209.47   30.04   0
   2   5   6  477.89   26.39   0
   2   9  19   50.30   43.81   0
   3   6   9 1214.24   32.69   0
   3   8  14   28.60   38.17   0
   4   2   7  -18.08   27.43   0
   4   5  18   70.05   39.42   0
  -4   9   9   -5.05   40.24   0
  -4  11  16   50.19   41.25   0
  -3  10  11  127.02   42.48   0
  -2  11  20  -36.03   49.64   0
  -1  11  15  138.02   45.81   0
   1   9  11  388.73   33.37   0
   2   3   4 1061.65   23.59   0
   2   9  13  418.64   36.27   0
   4   6  17  118.63   37.70   0
  -5  10  12   78.99   42.23   0
  -4  11  15   51.78   41.49   0
  -3   6   4 1565.03   35.48   0
  -3  11  14   86.35   45.06   0
  -1  11  20  -59.33   47.95   0
   0  10  12  133.98   35.44   0
   0  11  17  -27.33   48.57   0
   1  10  20   38.88   44.68   0
   2   6   7  843.03   28.00   0
   2   9  20   18.38   44.99   0
  -4   6   4  -15.23   34.94   0
  -4  10  11    8.23   40.96   0
  -1  10  11  126.74   37.77   0
  -1  11  14   94.81   45.69   0
   0   3   2   28.20   19.71   0
   0   6   5  184.63   23.95   0
   0  11  16   18.27   43.28   0
   0  11  19   48.01   48.22   0
   2   8  10   85.17   30.49   0
   3   6  21  -40.86   40.38   0
   4   6  18   38.61   38.24   0
  -5   5   3  251.85   43.86   0
  -5  11  17  -18.43   37.91   0
   0  11  15   64.01   43.05   0
   1   7   7   79.09   26.91   0
   1  10  21   33.72   43.44   0
   2   9  12  172.97   35.14   0
   2  10  16   32.41   43.57   0
   2  10  17   65.63   44.37   0
   3   7  10  220.55   31.73   0
   4   5  19    3.83   40.42   0
   5   3  12   59.30   35.80   0
   5   3  13  157.52   36.86   0
   5   3  14   64.81   36.79   0
  -5  11  16   41.95   38.74   0
  -4  11  14  105.10   41.76   0
  -3  11  13   67.41   45.53   0
   1   2   2 1223.92   23.63   0
   2   7   8   -5.93   29.20   0
   2  10  15  230.73   44.91   0
   3   7  21   94.52   40.79   0
   3   9  15   52.03   43.38   0
   3   9  16  202.99   41.25   0
   3   9  17   12.56   41.32   0
   5   3  15   87.76   37.89   0
  -5   9   9  198.49   40.57   0
  -5  11  15  -22.29   39.25   0
   0   7   6   51.46   25.86   0
   0   9   9  251.16   30.34   0
   0  11  14  217.55   43.34   0
   0  11  21   67.08   48.31   0
   1   9  10  409.28   31.68   0
   1  11  16   11.90   46.28   0
   1  11  17  185.96   47.14   0
   1  11  18  147.56   48.78   0
   2  10  19   70.29   46.07   0
   3   4   6  217.89   23.78   0
   3   5   7 2459.41   30.69   0
   3   9  18   -7.04   40.59   0
   4   6  19   25.50   39.67   0
   4   7  18  -71.98   39.65   0
   5   4  13  312.68   36.50   0
   5   4  14   44.07   37.08   0
  -5   8   7  105.21   40.80   0
  -3   7   5   30.33   33.02   0
  -3  10  10   32.33   42.09   0
   1  10  12   56.50   34.13   0
   2  10  14  147.32   38.43   0
   3   6   8   43.59   27.98   0
   3   9  14  113.39   40.05   0
   5   3  11  142.69   30.99   0
   5   4  15  179.18   38.58   0
  -5  10  11  169.98   41.50   0
  -4  11  13   18.75   42.62   0
  -3   9   8  -15.85   34.56   0
  -3  12  17   39.26   44.68   0
  -3  12  18   57.16   43.46   0
  -2   9   8  428.06   34.47   0
  -1  12  19  -23.62   47.54   0
   1   8   8  324.00   29.81   0
   1  11  15    4.07   44.48   0
   2   9  11   22.25   32.91   0
   3   3   5   61.28   22.85   0
   3   8  21   44.82   40.97   0
   5   4  12   25.22   35.63   0
   5   4  16   78.21   36.73   0
  -5  11  14   49.31   37.91   0
  -3  12  19   53.13   40.37   0
  -2   7   5  403.72   29.38   0
  -1  12  16   40.67   43.71   0
  -1  12  20  -21.56   49.99   0
   0  11  13   38.77   41.54   0
   2   8   9  769.80   30.57   0
   3   9  13   -3.82   34.24   0
   4   6  10  192.79   30.28   0
   4   7  19   41.02   40.78   0
   5   5  14   60.01   37.21   0
   5   5  15   61.79   35.06   0
  -4   7   5  415.51   35.94   0
  -4   9   8  186.59   40.67   0
  -4  10  10  207.39   41.68   0
  -3  12  16    9.94   40.66   0
  -1   5   3  280.22   25.96   0
   0   8   7  134.38   28.32   0
   0  12  18   24.24   50.71   0
   0  12  19   83.16   47.29   0
   1  11  14   -2.53   43.66   0
   1  11  21  -47.62   44.81   0
   2  10  21   54.33   43.72   0
   4   6  20  -78.62   41.28   0
   5   1   9   41.21   32.58   0
   5   3  10   30.60   30.08   0
   5   4  11  141.95   30.68   0
   5   5  13    0.88   37.97   0
   5   5  16   23.98   39.18   0
  -5   6   4   67.07   38.59   0
  -4  12  17  -60.53   41.51   0
  -4  12  18   91.56   37.67   0
  -1   6   4  488.98   26.35   0
   0  12  16   94.31   46.25   0
   0  12  20  -43.21   48.21   0
   1  10  11  311.56   33.39   0
   2  11  17   93.36   46.68   0
   2  11  18   -4.84   48.69   0
   3  10  16  183.46   42.10   0
   3  10  17   30.56   42.92   0
   3  10  18   29.56   46.41   0
   5   4  17    0.73   35.52   0
  -5  11  13   -2.31   41.04   0
  -4  11  12   24.55   44.54   0
  -3  12  15   -9.08   39.14   0
   0  10  10  152.75   34.94   0
   2  11  19  -30.59   46.46   0
   3  10  15  173.95   43.48   0
   3  10  19  -60.51   43.47   0
   4  -1   5  279.94   35.15   0
   4   7  11   28.71   32.65   0
   4   7  20   49.98   39.92   0
   4   8  19   -2.70   39.47   0
   5   5  17   64.76   35.69   0
  -3   8   6  237.53   34.53   0
  -2   8   6   47.31   31.58   0
  -2  12  14  -22.87   43.29   0
  -1   4   2   67.16   23.28   0
   0  11  12  -70.14   38.45   0
   0  12  15  182.83   45.58   0
   2   5   5  155.45   24.09   0
   2   6   6  620.99   24.95   0
   2   9  10  175.02   31.54   0
   3   8  10  160.64   32.41   0
   5   6  16   72.32   35.05   0
  -3  12  14  -30.84   41.65   0
  -2  10   9   45.91   37.69   0
  -2  11  11   75.33   41.59   0
   0   9   8  279.64   32.25   0
   1   5   4   26.80   22.32   0
   1   7   6  172.91   26.24   0
   1  12  17   48.31   48.52   0
   2   7   7  915.98   29.82   0
   3   2   4  788.55   26.61   0
   3  10  14  135.45   41.97   0
   4   5   8 1185.47   30.91   0
   4   9  16   36.04   40.68   0
   5   4  10  236.87   30.41   0
   5   6  13   76.95   35.10   0
   5   6  17  -48.97   36.24   0
  -5  10  10   41.16   41.36   0
  -3  11  11   26.40   43.92   0
   1  12  16  -56.43   45.03   0
   1  12  20  -23.47   47.87   0
   2  11  21   -2.26   44.09   0
   4   0   5  761.41   32.54   0
   4   6   9  235.79   28.57   0
   4   8  12   20.41   35.65   0
   4   9  15  140.86   40.40   0
   5   3   9  180.42   30.04   0
   5   5  11   45.75   30.47   0
   5   5  18   16.86   35.27   0
  -5   9   8  -26.77   41.55   0
  -4   8   6  212.15   37.77   0
   1  12  21  -47.65   47.00   0
   2   4   4 2500.61   27.27   0
   2   8   8  219.01   29.98   0
   3   5   6   16.88   25.99   0
   3   6   7 1135.92   29.49   0
   3   9  11  184.06   34.04   0
   4   7  10  333.90   32.88   0
   4   9  14  -36.22   40.61   0
   5   6  12  109.78   35.21   0
   5   6  18   43.19   37.03   0
   5   7  15   52.30   38.35   0
   5   7  16   -6.31   38.68   0
  -5   7   5   31.95   38.84   0
  -4  12  14   14.24   41.27   0
   1   8   7  205.57   28.75   0
   1  11  12   84.02   36.30   0
   3   7   8  193.24   30.49   0
   3  10  13  209.94   36.43   0
   5   1   8  885.04   33.41   0
   5   7  14   25.84   36.80   0
   5   7  17   -6.18   35.76   0
  -4  10   9   26.70   43.18   0
  -3  12  13    8.81   41.72   0
  -2   9   7   58.66   32.87   0
  -2  13  17   66.83   43.01   0
   0  11  11  114.09   37.15   0
   0  13  19   11.83   46.37   0
   1   4   3 4232.44   31.27   0
   2  11  13   -3.20   37.68   0
   2  12  18  108.05   49.68   0
   2  12  19   14.30   45.93   0
   3  11  16    4.79   44.85   0
   4   8  21   61.74   38.52   0
   4   9  13  160.35   41.12   0
   4   9  20  -87.01   41.63   0
   5   7  18   75.98   38.15   0
  -3   9   7  554.61   36.18   0
  -3  13  17    2.36   43.36   0
  -2  13  16   70.76   42.08   0
   0   6   4  120.90   23.97   0
   0   7   5 1006.73   28.83   0
   0  10   9  114.76   35.36   0
   0  13  17   29.76   45.54   0
   0  13  20  -34.09   48.86   0
   2  12  20   64.89   45.54   0
   3   0   3  144.34   28.18   0
   3   4   5   74.09   22.99   0
   3   8   9   37.62   31.84   0
   3  11  15  106.03   48.19   0
   3  11  20   96.62   41.74   0
   4   8  11  368.59   33.36   0
   4  10  16   63.65   44.47   0
   4  10  17  159.69   41.08   0
   5   5  10   49.91   31.25   0
   5   6  19  -25.98   38.78   0
   1   9   8   34.46   30.83   0
   2  12  21   13.57   42.65   0
   3  10  12   36.59   36.34   0
   4   9  21   -5.94   40.69   0
   5   4   9  189.03   29.50   0
   5   7  19   43.27   40.70   0
   5   8  16   31.57   40.05   0
  -3  13  16  129.52   43.19   0
  -2  11  10   17.40   41.84   0
   0   5   3  138.93   23.10   0
   0   8   6 1358.61   32.27   0
   0  13  16   10.16   44.42   0
   1  13  18   94.50   48.11   0
   1  13  19  -10.84   46.05   0
   2  12  15   42.34   44.61   0
   3   9  10   33.37   33.91   0
   3  11  21  -96.78   41.54   0
   4  10  15   41.40   42.41   0
   5   8  18   22.53   39.08   0
  -4   9   7    6.88   41.07   0
  -3  11  10   88.17   42.72   0
  -2  12  12   26.28   45.06   0
  -2  13  15   40.17   41.45   0
   1  13  17  -37.56   48.76   0
   1  13  20   22.75   45.67   0
   2  11  12  146.18   35.44   0
   3  11  14   33.49   45.89   0
   4   6   8  370.09   30.20   0
   4   7   9  479.12   31.87   0
   4   9  12   58.44   35.52   0
  -4  13  17   10.27   39.28   0
  -3  13  15  -35.84   42.93   0
  -2  10   8  123.75   36.09   0
   0  13  15   98.22   43.72   0
   1  10   9  204.38   34.00   0
   1  12  13   24.72   43.44   0
   2   3   3  139.28   21.10   0
   3  12  18 -118.11   51.35   0
   4  10  14   24.74   43.04   0
   5   7  20   33.33   40.61   0
   5   8  19   76.59   41.09   0
  -4  13  16  -22.59   41.54   0
   0   9   7  245.84   29.60   0
   0  11  10  -20.41   36.32   0
   0  12  12   41.81   43.84   0
   2  12  14   17.58   46.66   0
   3  12  17   73.89   50.77   0
   3  12  19  -81.50   44.39   0
   3  12  20    5.59   44.54   0
   4   8  10  -20.53   33.00   0
   4  10  21    4.50   41.65   0
   5   9  18   -7.98   43.35   0
   6   4  14  201.85   39.70   0
  -3  10   8  340.68   40.16   0
  -2  13  14    5.51   41.80   0
   2   6   5 1602.13   28.53   0
   2   7   6   19.55   25.88   0
   2   8   7  302.99   30.82   0
   2  13  18   40.40   49.27   0
   2  13  19   17.50   48.99   0
   3  10  11  204.05   36.53   0
   3  11  13   73.40   38.75   0
   3  12  16   42.72   47.68   0
   4  11  17   59.38   46.33   0
   4  11  18   -2.68   42.74   0
   5   8  20  -22.30   42.34   0
   6   4  13   35.09   38.32   0
   6   5  15  124.19   41.08   0
  -4  11  10   43.81   42.45   0
   1  13  15  -68.86   45.91   0
   3   6   6  293.65   28.21   0
   3   7   7   35.22   28.07   0
   3   8   8  452.39   33.02   0
   3  12  21   29.29   44.86   0
   4   4   6   10.58   26.12   0
   4   9  11  170.37   35.53   0
   4  11  16   68.32   44.64   0
   5   9  19    6.70   44.54   0
   6   5  14   17.05   38.92   0
   6   5  16  129.93   40.33   0
  -3   7   4   67.84   34.60   0
  -3  13  14  124.83   42.39   0
  -2   7   4  348.41   32.68   0
  -2  14  18   39.61   42.20   0
   0  10   8  433.76   35.09   0
   0  14  18  -21.64   49.75   0
   0  14  19   39.57   46.66   0
   1   3   2 1422.66   25.71   0
   1   7   5  214.18   29.79   0
   1  12  12  198.70   43.33   0
   2  11  11  291.97   36.27   0
   2  12  13  118.88   45.14   0
   3  12  15   58.88   47.63   0
   4  11  15   -0.16   44.43   0
   5   0   7   38.13   35.47   0
   5   1   7  486.15   34.35   0
   5   4   8  761.64   30.77   0
   6   4  12  248.08   40.28   0
   6   5  13   72.81   39.22   0
   6   6  15   48.13   42.27   0
   6   6  16  -65.22   40.04   0
  -3   6   3  118.14   34.32   0
  -2   6   3 3841.51   38.29   0
  -2   8   5  344.98   33.98   0
  -2  12  11  121.02   44.46   0
  -2  14  17  -26.16   43.39   0
   0   4   2   59.61   22.88   0
   1   8   6  117.66   29.44   0
   1  11  10  470.54   36.84   0
   3   9   9  140.02   33.52   0
   5   9  20  -14.03   41.19   0
   6   6  14   59.52   37.70   0
   6   6  17   59.02   40.22   0
  -4  10   8   49.80   43.43   0
  -3   8   5  281.09   36.15   0
  -2  13  13  102.54   45.07   0
   1   6   4 1417.51   27.80   0
   1   9   7  576.93   31.94   0
   1  13  14  210.60   46.09   0
   1  14  19   -0.42   45.53   0
   1  14  20  -36.09   45.86   0
   2   5   4 1422.59   27.38   0
   3   5   5  364.70   26.98   0
   4   7   8   69.00   33.65   0
   4  10  12  376.38   37.84   0
   5   9  13   69.90   43.58   0
   5  10  19  100.53   46.63   0
   6   5  12  -12.72   38.81   0
   6   6  13   11.68   41.93   0
   6   7  16   46.94   43.07   0
  -3  12  11 -122.92   44.98   0
  -3  14  17   10.92   41.43   0
   2  13  15  108.61   45.61   0
   3  10  10   52.46   35.85   0
   3  12  14   77.23   48.51   0
   3  13  18   41.72   52.56   0
   3  13  19    5.39   46.84   0
   3  13  20   -7.47   46.72   0
   4   6   7  266.15   32.99   0
   4   8   9   -8.83   34.58   0
   4  12  18   79.43   49.65   0
   4  12  19   77.17   47.21   0
   5  10  15  -74.70   45.49   0
   6   4  11    4.41   38.93   0
   6   7  15   38.77   39.48   0
   6   7  17  -23.85   40.11   0
  -4  13  14  -18.73   41.17   0
  -3  11   9  100.78   43.20   0
   1   1   1 4308.38   42.33   0
   1  10   8  170.49   35.11   0
   3  13  17  -31.61   51.26   0
   4   9  10  284.89   35.80   0
   4  12  17  -22.84   51.05   0
   4  12  20    9.17   46.89   0
   5   8  11    3.23   36.88   0
   5  10  20  -20.62   42.18   0
   6   7  14   55.03   41.58   0
   6   7  18  -41.84   41.75   0
  -3   5   2  451.91   38.40   0
  -3   9   6   96.63   38.00   0
  -1  14  15   27.65   45.21   0
   1  12  11   50.89   44.49   0
   2  14  19   24.28   51.59   0
   4  12  16   61.20   49.08   0
   5   3   7  193.06   31.03   0
   5  10  14   36.00   47.07   0
   6   6  12  237.00   41.39   0
   6   8  16   89.27   40.51   0
   6   8  17  -40.58   44.30   0
  -4   6   3   16.70   39.61   0
  -4   7   4  176.88   41.22   0
  -3  14  16    8.69   42.97   0
  -2   5   2  242.31   32.33   0
  -2  14  15    5.87   45.83   0
   2  11  10    7.50   35.48   0
   2  13  14   -9.67   45.07   0
   2  14  18   11.31   48.57   0
   3  12  13   43.12   46.79   0
   4   5   6  768.27   31.01   0
   4  11  13  -16.19   46.33   0
   5   9  12  177.25   38.93   0
   6   5  11  211.71   39.91   0
   6   7  13  -16.05   42.98   0
   6   8  15  128.21   44.26   0
   6   8  18   36.29   44.20   0
  -4  12  11  154.10   44.26   0
  -2  10   7  365.80   39.73   0
  -1  12  10   51.61   44.76   0
  -1  13  12   25.66   46.90   0
   0   8   5  117.51   31.09   0
   1   5   3 2581.11   29.05   0
   4  10  11   29.38   38.25   0
   5  11  16    5.51   46.40   0
  -4   8   5  -19.04   41.68   0
  -2  12  10   39.39   46.03   0
  -2  13  12  171.41   43.28   0
   0   9   6  331.54   33.55   0
   1  11   9   32.61   38.59   0
   1  14  15   71.31   46.41   0
   3   4   4   15.92   23.33   0
   3   8   7 1938.68   35.12   0
   3   9   8  -15.88   33.41   0
   3  13  15   92.22   48.22   0
   5  10  13  144.38   47.09   0
   6   4  10    6.29   35.71   0
   6   8  19  -46.02   45.07   0
  -4  11   9  189.61   43.22   0
  -1  14  14  -47.62   45.76   0
   2   8   6  459.92   31.86   0
   2  13  13  173.14   49.56   0
   2  14  16   51.15   50.94   0
   4  13  18  -92.86   53.33   0
   4  13  19   40.42   46.64   0
   5   8  10  178.50   40.69   0
   5  11  15  102.50   48.25   0
   6   6  11    1.44   38.06   0
   6   7  12  219.46   40.85   0
   6   9  16  -12.82   42.01   0
   6   9  17   40.66   40.86   0
   6   9  18  121.03   45.01   0
  -3  10   7   92.18   41.12   0
  -3  12  10   85.02   46.37   0
  -3  13  12   28.29   45.57   0
  -2  14  14  115.15   45.82   0
   2   7   5  600.47   29.67   0
   3  12  12  257.56   41.87   0
   3  14  18  100.63   53.39   0
   3  14  19   95.79   51.55   0
   3  14  20  -20.52   46.89   0
   4   8   8  249.45   34.77   0
   4  11  12  155.56   40.52   0
   4  12  14  133.04   48.38   0
   4  13  20  -59.76   48.45   0
   5   9  11  180.80   43.18   0
   6   8  13  160.13   40.72   0
   6   9  15   82.43   44.63   0
   6   9  19  -21.20   48.20   0
  -4   9   6  356.79   42.87   0
  -1  11   8  253.67   42.52   0
  -1  15  17   51.14   47.43   0
   2   2   2 2386.73   30.94   0
   2  14  15  -23.90   52.59   0
   3  13  14   -8.36   47.75   0
   3  14  17  -39.21   55.60   0
   4   7   7  370.16   32.91   0
   5  11  14   23.06   49.11   0
   6   5  10   41.67   37.00   0
  -2  11   8   72.99   44.23   0
  -2  15  17   99.64   42.52   0
   0   6   3  193.75   27.22   0
   3   6   5  318.92   29.10   0
   4   4   5   46.16   27.49   0
   4  10  10  346.31   38.78   0
   4  13  16  -14.41   54.69   0
   5  10  12   75.60   42.88   0
   5  12  17  -16.72   48.68   0
  -1  13  11  299.04   48.32   0
  -1  15  16  -25.97   47.50   0
   1   8   5  337.54   33.44   0
   1   9   6  145.79   32.99   0
   2   6   4  772.64   28.77   0
   2  11   9  202.15   36.52   0
   2  15  19   -2.02   45.94   0
   3  14  16   22.10   55.78   0
   5  12  16  -90.80   51.83   0
   6   7  11  182.94   40.59   0
   6  10  16  -53.83   44.37   0
   6  10  18  -40.97   46.46   0
   6  10  19    8.55   47.47   0
  -3  11   8  196.05   47.26   0
  -2  13  11   15.14   44.56   0
   1  10   7   -6.46   33.11   0
   2  13  12  193.57   48.15   0
   2  15  18   23.95   44.95   0
   4   0   4 1099.31   40.48   0
   4  11  11  318.05   40.01   0
   4  13  15   12.33   51.29   0
   5   1   6  118.52   35.26   0
   6   2   9    8.38   39.66   0
   6   4   9  295.76   36.56   0
   6   6  10  432.77   37.54   0
  -4  10   7  167.30   46.87   0
  -2  14  13   19.09   46.91   0
  -1  12   9  164.75   45.07   0
   1   7   4  732.42   31.44   0
   1  14  13   37.77   50.45   0
   1  15  16    3.81   48.76   0
   2  14  14   83.88   48.45   0
   2  15  17   54.92   49.55   0
   3  12  11  105.41   39.01   0
   5   8   9   -7.76   37.22   0
   5   9  10  133.68   40.74   0
   5  12  15   43.91   50.91   0
   6  10  20   98.02   43.21   0
  -1  15  15   87.94   49.28   0
   1   4   2  293.78   23.54   0
   1  13  11   41.59   46.78   0
   2  12  10   68.08   39.90   0
   3  14  15   52.31   51.74   0
   4  14  18  -44.30   52.19   0
   4  14  19  134.19   46.30   0
   4  14  20   24.61   48.32   0
   0   3   1 1268.21   28.08   0
   2  15  16   63.80   51.69   0
   3   5   4   -1.96   27.26   0
   3   9   7  671.43   35.45   0
   3  15  19  -30.78   50.87   0
   4  13  14  103.69   50.50   0
   4  14  17  108.95   56.67   0
   5  10  11  331.23   43.04   0
   5  13  18  -37.89   50.43   0
   6   5   9  169.60   37.19   0
   6  11  19   28.54   48.26   0
  -3  14  13   46.33   43.56   0
  -2  15  15   -7.64   45.81   0
   3   8   6    2.38   34.14   0
   3  10   8  387.97   36.83   0
   4   9   8  398.68   36.67   0
   5  13  17  -58.76   50.00   0
   6  11  20   -6.28   45.11   0
   7   6  15   18.24   41.37   0
  -2   8   4  236.05   37.45   0
  -2   9   5   16.22   38.76   0
  -1   9   5   33.60   35.03   0
  -1  14  12   77.43   46.95   0
   0   5   2  105.35   28.47   0
   1  12   9  143.01   40.84   0
   2   9   6  236.02   36.58   0
   2  13  11   54.46   48.92   0
   2  14  13  -15.15   48.87   0
   3   3   3 2773.71   33.36   0
   3  11   9   32.34   38.07   0
   3  13  12   35.74   50.27   0
   4   5   5   19.06   31.38   0
   4   8   7   15.93   35.19   0
   5   6   7  198.48   34.53   0
   5  11  12  219.78   47.85   0
   5  13  16   89.08   56.61   0
   7   6  14   57.08   43.28   0
   7   7  15   46.39   41.81   0
   7   7  16   16.44   40.77   0
  -2   4   1   23.09   32.18   0
  -2  10   6    1.93   42.02   0
  -2  14  12   52.72   49.78   0
  -1  10   6  140.35   37.79   0
  -1  13  10   39.42   50.25   0
  -1  15  14  -93.74   48.12   0
   0  15  14  -28.92   48.72   0
   1   6   3  382.60   29.35   0
   2   5   3 1223.09   28.12   0
   2  10   7  188.58   35.23   0
   4  11  10   -4.83   40.07   0
   6   6   9    2.28   36.98   0
   7   7  14   13.25   44.71   0
   7   8  16    9.38   41.75   0
  -1  16  17  -14.32   46.57   0
   0  16  17   11.19   48.10   0
   2   8   5   93.78   31.55   0
   3   7   5   62.11   31.51   0
   3  12  10   12.76   39.61   0
   4   7   6  140.93   35.46   0
   4  14  15  -74.20   54.69   0
   6  12  19  -33.67   47.19   0
   7   6  13   46.87   41.84   0
   7   8  15   62.35   43.87   0
   7   8  17   52.80   41.82   0
  -2   7   3  533.22   36.51   0
  -1  11   7  170.90   40.00   0
   2   3   2 2611.56   30.80   0
   4  12  11  185.33   42.62   0
   4  15  19  -83.89   50.13   0
   5   9   9  435.54   37.28   0
   5  10  10  177.79   39.37   0
   5  13  15  -12.35   53.47   0
   6   4   8  -20.83   35.87   0
   7   7  13   91.98   42.66   0
  -3   8   4  226.11   39.56   0
  -3   9   5  526.46   40.60   0
  -2  11   7  116.35   43.56   0
   1   2   1   32.56   20.27   0
   2  12   9    0.06   40.44   0
   2  14  12  118.07   50.75   0
   3  14  13  134.99   48.45   0
   5  11  11   43.18   44.30   0
   5  14  18  101.14   46.06   0
   5  14  19   26.38   49.07   0
   6   2   8  404.74   39.93   0
   7   5  12  208.74   41.81   0
   7   8  14   -6.31   42.15   0
   7   9  16   59.84   43.19   0
   7   9  17  -60.77   43.29   0
   7   9  18  -38.75   45.70   0
  -3  10   6  248.74   42.91   0
  -3  14  12   31.31   45.50   0
   2   7   4  249.46   29.84   0
   2  16  17   26.51   48.12   0
   3  15  15    2.53   53.09   0
   5  14  17  -26.50   52.65   0
   6   5   8  160.23   35.60   0
   7   6  12  119.35   42.72   0
   7   9  15  -39.04   42.08   0
   0  14  11   21.26   48.76   0
   0  15  13  121.63   47.63   0
   1   9   5  689.85   36.51   0
   1  10   6  575.50   34.62   0
   1  11   7  125.10   42.19   0
   4  13  12  188.46   51.44   0
   4  14  14   67.40   51.46   0
   5   7   7   57.34   35.71   0
   5  12  12   79.25   53.64   0
   6  11  13   23.51   48.49   0
   6  12  15   73.57   45.95   0
   7   8  13   78.67   43.97   0
   7   9  14   23.17   45.70   0
   7  10  17   54.62   45.40   0
   7  10  18 -136.65   49.39   0
  -3  13  10   -2.53   47.07   0
  -2  12   8  114.88   47.27   0
   2  16  16   60.29   52.65   0
   3   6   4 1312.06   31.61   0
   3  10   7  -26.93   36.40   0
   3  16  18  105.86   46.27   0
   4   6   5   79.93   31.22   0
   4  10   8  193.02   37.57   0
   7   7  12    4.78   41.46   0
   7  10  16  125.49   42.42   0
  -3  11   7   98.26   46.23   0
  -2  15  13   80.28   45.06   0
   0   7   3   82.13   29.50   0
   0  16  15  -22.27   48.72   0
   3   4   3 1317.97   27.87   0
   3   9   6  541.00   35.61   0
   3  11   8  322.87   38.38   0
   3  16  17   20.02   48.76   0
   4  11   9  117.42   39.87   0
   6  12  14   14.30   50.78   0
   7   5  11   64.14   42.29   0
   7  10  15   55.19   41.71   0
   7  10  19   98.51   43.01   0
  -1  13   9  101.50   48.84   0
  -1  16  15    8.24   45.31   0
   1   8   4   79.19   31.32   0
   2  15  13   70.86   50.69   0
   3  12   9  131.24   38.57   0
   3  15  14   37.97   51.85   0
   4   4   4  144.32   27.31   0
   5  10   9   63.66   41.51   0
   5  13  13   57.69   50.36   0
   5  14  15  119.51   59.44   0
   5  15  19  -62.38   52.11   0
   6   9  10   65.94   40.01   0
   6  10  11  -10.41   44.44   0
   6  13  16   29.18   49.17   0
   7   6  11  362.81   41.74   0
   7   8  12  171.04   45.38   0
   7   9  13   34.29   46.31   0
   7  11  17  -51.48   48.96   0
   1   5   2 2297.11   31.29   0
   2  14  11  156.73   51.09   0
   2  16  15   78.37   50.60   0
   4   8   6 1153.68   36.00   0
   5   6   6  591.77   34.73   0
   5   9   8   34.79   36.53   0
   5  11  10  230.23   40.41   0
   5  15  18  103.40   49.78   0
   6  11  12  -43.39   47.89   0
   7  11  16   -9.60   46.08   0
   7  11  19  -11.18   44.32   0
   0  15  12   37.80   49.01   0
   2   6   3 2080.22   32.00   0
   2  10   6   35.53   34.02   0
   3   8   5  584.04   34.15   0
   3  16  16    0.06   46.24   0
   4  16  18  -17.17   52.96   0
   5  12  11   65.58   48.61   0
   6  13  15  103.27   53.14   0
   7   7  11  142.96   43.30   0
  -1  15  12  154.98   47.44   0
   0  16  14   45.68   46.76   0
   2   9   5  108.34   33.03   0
   2  12   8   25.50   41.31   0
   5   8   7   74.40   34.80   0
   5  14  14  -50.54   55.63   0
   5  15  17   29.34   49.29   0
   7  11  15  -41.27   45.24   0
   2   4   2 1893.55   29.02   0
   3  15  13   52.75   49.95   0
   4  16  17  -51.20   51.81   0
   6  14  17  125.83   51.85   0
   7  10  13  -20.71   44.55   0
   7  12  17  -12.23   47.14   0
   7  12  18   11.04   44.48   0
   2  13   9   87.07   43.93   0
   3  16  15  -72.24   47.97   0
   5  15  16   28.41   51.95   0
   6  13  14  102.73   50.56   0
  -8  10  12  -17.80   33.95   0
  -4  10  19  -80.61   53.18   0
  -3   9  20  -13.94   49.16   0
  -2  10  11  -63.49   36.65   0
  -2  10  17   41.01   49.65   0
  -1   6   4  487.08   26.11   0
   0   4   3  852.53   24.41   0
   0   8  17  -25.56   46.49   0
   1   7  15  -13.73   40.86   0
  -7  10  10  -57.60   35.99   0
  -6  11  14  -47.99   44.00   0
  -4  10   9   15.08   42.22   0
  -2   7  21   37.34   49.01   0
  -1   9  18  -36.65   49.59   0
   0   6  19  -71.54   43.68   0
   0   7   7  670.76   28.45   0
   1   7  10  147.14   28.16   0
   2   4   8   -1.46   26.55   0
  -6  10   9    1.47   40.43   0
  -6  11  13  -25.14   41.45   0
  -6  11  16    4.93   39.11   0
  -5   7   3  -64.20   35.38   0
  -4  11  17  -38.69   45.18   0
  -3  10  19   54.59   53.03   0
  -3  11  14   11.23   47.36   0
  -3  11  15  144.16   48.98   0
  -2  10  18   18.39   52.22   0
  -1   8   7  145.21   30.61   0
  -1  10  14   78.10   45.68   0
  -1  10  15   42.14   46.72   0
   0   3   2   25.49   18.99   0
   0   5   4 2042.12   26.75   0
   0   9  13  296.95   33.57   0
   0   9  14   52.66   35.05   0
   0   9  15   76.91   43.31   0
   1   6  17   -7.78   43.30   0
   2   5  10  170.97   27.42   0
  -5  11  12  -14.48   40.10   0
  -5  11  18  -23.43   47.91   0
  -3  11  16   49.10   48.80   0
  -2   9  20  -31.49   49.56   0
  -1   9   9  130.96   29.90   0
  -1  10  13  241.57   37.61   0
  -1  10  16  136.74   44.47   0
   0   9  12   92.28   32.90   0
   2   3  15  197.84   42.63   0
   2   5  14   82.06   37.60   0
  -7  11  14  -20.15   36.32   0
  -7  11  15   25.91   36.56   0
  -6  11  12  -19.53   38.84   0
  -4  11  18  -74.31   45.51   0
  -3  11  17  -30.45   49.17   0
  -2  10  10  207.90   34.40   0
  -1   5  21  -26.27   45.87   0
  -1  10  12   97.72   36.34   0
   0   7  19   28.51   45.50   0
   1   8  13  218.67   31.56   0
   1   8  14   43.80   36.80   0
  -7  10   9   24.22   36.49   0
  -7  11  13    8.60   39.11   0
  -5  11  11  -21.87   39.21   0
  -3  10  20   63.28   45.30   0
  -3  11  18  -54.50   52.37   0
  -2  10  19  110.36   48.99   0
  -2  11  14  226.56   44.65   0
  -2  11  15   53.22   45.76   0
  -1   7   5  338.44   26.96   0
  -1   9  19   65.40   45.21   0
  -1  10  17  -49.91   45.84   0
   1   4  18   49.91   40.42   0
   1   6   7   13.46   25.20   0
   1   8  12  444.75   32.29   0
   2   4  15  -33.77   39.43   0
  -4  10   8    0.06   38.85   0
  -4  11  11   43.84   41.52   0
  -4  11  19   82.37   45.95   0
  -2  11  13   43.86   44.09   0
  -2  11  16   94.70   46.81   0
  -1   6  21   33.12   46.32   0
   0   8   8   17.85   31.30   0
   0   9  17  129.12   41.31   0
   1   5  18  -65.17   40.29   0
   2   6  12  475.61   31.74   0
  -7  11  12   28.84   34.10   0
  -6   9   6  -17.06   38.42   0
  -6  10   8  -12.12   39.27   0
  -6  11  11  -83.93   37.48   0
  -2  11  17  104.23   48.56   0
  -1   7  21    4.11   48.31   0
   0   5  20   81.72   43.10   0
   1   8  11   29.73   30.71   0
   1   8  16  -19.92   42.36   0
   2   3   6   59.60   21.17   0
   2   5  15  111.18   39.85   0
   2   6  11   44.27   26.88   0
  -3  11  19   83.61   51.64   0
  -2  10  20  -33.67   43.61   0
  -2  11  12  184.78   41.89   0
  -1   9   8   -3.84   30.05   0
   0   6  20   13.80   43.69   0
   0   7   6   62.93   27.44   0
  -5   8   4   11.58   33.70   0
  -5  11  10  -36.89   37.28   0
  -5  12  15  -21.02   40.28   0
  -4  11  10  -20.00   41.65   0
  -3  10   8  302.33   36.38   0
   0  10  15   69.37   42.82   0
   1   7   8 1048.82   28.79   0
   1   8  10  498.19   30.73   0
   2   6  10 1090.39   29.03   0
  -7  11  11   -9.73   34.74   0
  -6  12  16    1.52   36.55   0
  -5  12  14   18.88   38.68   0
  -4  12  17  -96.04   46.62   0
  -3   9   6  101.57   31.17   0
  -1   8   6   31.90   26.03   0
  -1   8  21  -44.61   42.92   0
  -1  10  19  -27.63   43.83   0
  -1  11  14   57.73   45.63   0
  -1  11  15   78.98   43.94   0
  -1  11  16   29.89   45.27   0
   0  10  13  -26.11   32.97   0
   0  10  16   51.10   41.93   0
   1   7  18   37.05   39.93   0
   2   2   5  113.72   21.76   0
   2   4  16  106.63   39.23   0
   2   6  15  170.00   35.76   0
  -6  12  15  -39.00   37.29   0
  -4  12  18  107.36   47.60   0
  -3  11  20   14.32   43.88   0
  -3  12  17   17.51   46.41   0
  -2  11  19  -53.26   43.48   0
   0   2   1  655.24   20.81   0
   1   5   5 1647.92   24.66   0
   1   9  13  -60.47   33.10   0
   1   9  14  215.74   35.99   0
   2   3  16    3.82   39.24   0
   2   5  16  136.70   37.05   0
   2   7  13  -48.32   35.05   0
  -6  12  14   -5.49   36.09   0
  -5  12  13   20.29   36.87   0
  -4  12  13   74.07   40.19   0
  -2  10  21   33.24   43.55   0
  -1  11  13  318.96   41.27   0
   0   9   9  287.72   30.28   0
   0  10  17   88.79   40.26   0
   1   4   4  586.64   20.98   0
   1   9  15   21.98   38.14   0
   2   6   9  457.61   26.47   0
  -6  12  13  -59.64   37.18   0
  -5  10   7  -18.52   38.10   0
  -3  12  18  -51.81   41.57   0
  -1  10  20  -23.43   42.85   0
  -1  11  18   35.02   45.92   0
   0   8   7  133.54   26.99   0
   0   8  20   37.25   40.55   0
   1   5  19   87.54   36.31   0
   1   6  19   63.77   39.00   0
   1   8   9  227.00   29.94   0
   1   9  12  349.22   31.33   0
   2   6  16  -19.45   38.81   0
   2   7  11  416.79   28.43   0
  -5  11   9   14.01   38.31   0
  -5  12  12   -9.31   35.90   0
  -4  11   9  150.61   38.68   0
  -4  12  12   -4.31   38.48   0
  -3  12  19  102.34   45.79   0
  -2  11  20  -73.16   42.19   0
  -2  12  15   -5.13   42.85   0
  -2  12  16  -16.04   45.73   0
  -2  12  17   -2.38   49.12   0
  -1  10   9  170.46   33.78   0
   0  10  18  -31.99   41.21   0
  -3   8   4  182.14   28.22   0
  -2  12  14   14.07   40.06   0
  -2  12  18  -23.75   47.09   0
  -1   5   2  150.57   22.47   0
  -1   6   3    5.45   21.95   0
  -1   9   7  246.88   27.14   0
  -1  11  19   70.34   45.50   0
   0   6  21   33.52   38.37   0
   1   7   7   63.44   25.48   0
   1   7  19   43.98   37.35   0
   1   9  17  127.39   38.85   0
  -6  11   9  -75.16   35.96   0
  -3  11   9   79.49   35.29   0
  -2  12  13   73.67   38.96   0
   0   7  21   22.92   40.88   0
   1   3   3   19.46   17.29   0
   2   4  17   27.88   37.25   0
   2   5   7  172.09   22.50   0
   2   5  17   -2.45   40.38   0
   2   7  10   28.83   26.13   0
   2   7  16  -10.63   34.49   0
  -4   9   5  180.86   29.48   0
  -4  12  11  116.33   39.86   0
  -1   7   4 1494.81   25.14   0
   0   5   3  129.87   20.91   0
   0   6   4  140.11   21.36   0
   0   9   8  302.02   28.88   0
   0  11  14  199.32   41.17   0
   0  11  16   51.02   39.14   0
   1   8  19   28.79   39.04   0
   2   6   8 1010.99   26.71   0
   2   6  17   74.23   35.19   0
   2   8  13  119.13   32.22   0
   2   8  14  302.66   32.44   0
   3   3  11  609.91   29.18   0
  -5  12  11   36.05   36.08   0
  -5  13  16   41.56   38.21   0
  -1  11  20  -15.49   39.74   0
  -1  12  17   44.03   45.97   0
   0   8  21  -17.11   40.35   0
   1   9  10  424.70   30.03   0
   1  10  16   94.57   38.30   0
   2   8  12   38.29   26.92   0
   3   3  10   41.84   26.68   0
   3   3  12   18.75   29.16   0
  -2   6   2   12.95   21.14   0
  -1  12  14   63.10   39.82   0
  -1  12  18  -73.41   46.25   0
   0  11  18    4.57   44.80   0
   1   6  20   40.57   37.81   0
   1  10  13  104.81   31.36   0
   2   3   5 1886.75   24.37   0
   2   7   9   93.13   27.43   0
   2   7  17   96.41   36.76   0
   3   4  11   77.92   27.55   0
  -5  11   8  122.66   36.54   0
  -5  13  14   45.55   38.42   0
  -4  11   8   33.35   35.05   0
  -4  13  14  -49.71   38.39   0
  -3  13  18   68.59   44.61   0
  -2   5   1  937.02   27.04   0
  -2   7   3  502.08   25.94   0
  -1   4   1  675.30   21.07   0
  -1  11  10  145.11   32.68   0
   0   9  21   64.04   40.75   0
   1   7  20   36.93   38.81   0
   1  10  12  -12.84   33.79   0
   1  10  17  -10.04   37.31   0
   2   8  11  386.17   27.73   0
   3   1  10  168.52   28.94   0
   3   1  11   68.59   32.10   0
   3   3   9  918.02   27.14   0
   3   3  13   93.55   32.64   0
   3   4  13   91.81   32.13   0
  -5   7   2   56.01   29.80   0
  -3  13  19   38.50   45.89   0
   0   4   2   38.33   19.69   0
   0  11  19   41.06   40.53   0
   2   5  18  128.83   34.99   0
   2   6  18   33.33   37.30   0
   3   5  12  319.93   28.84   0
   3   5  13    6.41   28.93   0
  -6  13  14  -17.27   36.04   0
  -5  10   6  103.00   35.23   0
  -5  12  10   90.10   35.76   0
  -4   6   1  531.86   29.51   0
  -4  10   6    8.97   32.78   0
  -4  12  10   46.29   35.13   0
  -4  13  13  -30.72   36.14   0
  -3  11   8  215.87   36.07   0
  -2   8   4  204.50   25.76   0
  -2  13  15  -38.56   41.93   0
  -2  13  17   48.60   40.87   0
  -1  11  21  -56.93   40.88   0
   0  10   9  129.64   27.87   0
   1   6   5  627.73   25.31   0
   1   9   9  895.84   31.35   0
   1  10  18   74.56   36.32   0
   2   9  15  175.08   35.95   0
   3   4  14   -8.46   32.46   0
  -5  13  13   13.06   35.50   0
  -4   7   2  590.24   30.63   0
  -3  12  10   97.35   38.43   0
   1   7   6  161.82   25.91   0
   1  10  11  300.06   31.30   0
   2   6   7  856.79   25.58   0
   2   8  10  100.43   27.53   0
   2   9  13  418.10   29.35   0
   3   1  12  260.57   32.47   0
   3   5  14  160.05   34.71   0
  -5   8   3  328.06   32.65   0
  -4   5   0    2.20   31.09   0
  -3  10   6  224.57   31.59   0
  -2  13  19  -55.56   43.40   0
  -1  12  20   13.97   37.64   0
   0   9   7  233.25   26.87   0
   0  11  20  117.04   39.70   0
   1   5   4   -2.05   21.53   0
   2   5   6  525.22   23.62   0
   2   8  18   51.38   37.33   0
   2   9  12  130.32   29.38   0
   3   6  14  116.72   32.57   0
  -6  13  13   33.64   34.01   0
  -4   8   3   47.38   31.20   0
  -4  13  12   92.57   36.73   0
  -2   9   5   23.73   27.73   0
  -1  11   9   -3.98   32.90   0
  -1  13  17   13.60   46.13   0
   1   8   7  224.96   26.59   0
   1  11  17  200.01   39.05   0
   2   7   8   13.27   25.33   0
   3   0  10    7.24   30.06   0
   3   4  15   28.68   35.43   0
   3   5  15   90.67   34.11   0
  -3  13  12   12.41   37.82   0
  -2   4   0 1579.69   30.20   0
  -1  12  11   87.93   38.38   0
  -1  13  15   19.66   41.40   0
  -1  13  18  -14.24   43.54   0
   1   7  21   16.84   36.74   0
   1  11  13  168.27   32.97   0
   1  11  18  180.86   41.28   0
   2   6  19   -5.47   35.03   0
   2   9  11   36.18   29.95   0
   3   0   9  464.79   30.97   0
   3   6  15   26.29   35.15   0
  -5   9   4  124.21   36.82   0
  -5  12   9   49.97   36.71   0
  -3   7   2    3.88   26.90   0
   0  11  10    6.00   30.31   0
   0  12  19   16.06   38.24   0
   1   8  21    8.85   38.60   0
   1  10  10   59.08   29.92   0
   2   4   5  613.76   21.25   0
   2   7  19   31.49   35.07   0
   2   8   9  790.07   27.27   0
   2  10  15  253.45   37.55   0
   3   5   9  581.25   24.39   0
  -5  11   7   85.33   37.38   0
  -4   9   4  111.11   32.42   0
  -4  14  16  -23.85   36.73   0
  -3   8   3   27.53   28.78   0
  -3  12   9  116.30   37.90   0
  -3  14  18  -34.62   40.72   0
  -2  10   6  -21.63   30.28   0
  -1  13  19   60.75   42.34   0
   0  10   8  442.40   28.20   0
   1  11  19    8.87   38.56   0
   2   8  19  113.70   36.28   0
   2  10  16   88.89   36.14   0
   3   5  16   -5.59   35.70   0
   3   6  10  -24.01   24.79   0
   3   6  16   64.15   35.05   0
   3   7  15  161.07   32.66   0
  -4  14  15   87.55   36.53   0
  -3   6   1   38.23   27.34   0
  -3  11   7   65.51   37.66   0
   1   9  21   64.98   36.60   0
   2  10  13   83.64   30.24   0
   3   4  16    6.96   34.80   0
   3   7  11  780.07   27.38   0
  -5  13  11  156.34   35.49   0
  -3  13  11   77.74   37.81   0
  -2  14  16   11.32   42.31   0
  -2  14  17   10.04   38.99   0
  -1  13  20   30.64   38.55   0
   0   7   4 1579.37   25.70   0
   0   8   5  121.35   25.40   0
   1   4   3 4296.17   27.34   0
   1  12  16    9.70   39.17   0
   1  12  17   58.31   43.36   0
   2   9  10  165.54   27.82   0
   2   9  19   40.52   37.43   0
  -4  14  14   72.64   36.48   0
  -3   9   4  358.19   30.50   0
  -3  14  14  -15.78   37.41   0
  -2  12   9  -10.80   34.54   0
  -2  14  19  162.65   42.44   0
   1   2   2 1159.82   21.03   0
   1  10   9  245.44   29.58   0
   1  10  21   73.00   38.88   0
   1  11  11   36.69   31.56   0
   1  12  18   13.27   42.71   0
   3   8  13   84.07   29.20   0
  -5  14  14  -38.43   35.17   0
  -4  10   5  165.69   37.21   0
  -1  13  12   43.42   40.17   0
   0   6   3  192.02   21.18   0
   0   9   6  346.08   27.47   0
   0  11   9  388.42   32.12   0
   0  12  11  246.71   35.85   0
   0  12  21   17.13   37.77   0
   0  13  19   -5.71   41.66   0
   2   6   6  605.07   23.65   0
   2   7   7  896.67   26.46   0
   2   7  20   93.53   34.80   0
   2   8  20   -0.70   37.96   0
   3   5   8  232.67   23.45   0
   3   5  17   84.48   36.23   0
   3   6   9 1201.70   25.68   0
   3   7  10  173.21   26.91   0
   3   7  17   80.78   34.31   0
   3   8  12  329.86   29.62   0
  -4  14  13  -40.13   37.75   0
  -2  11   7  132.81   33.07   0
  -1  14  16   55.25   42.47   0
  -1  14  17   27.18   39.05   0
  -1  14  18   63.78   42.07   0
   0   3   1 1272.59   22.55   0
   1   8   6  160.74   27.14   0
   1  12  13    8.93   39.11   0
   1  12  19   41.84   38.66   0
   2   8   8  242.13   26.81   0
   2  10  11  -21.78   32.34   0
   2  11  14   92.82   39.40   0
   2  11  15  -47.22   38.30   0
   2  11  16  276.79   36.93   0
  -5  14  13   65.64   36.95   0
  -4  12   8   89.62   38.24   0
  -4  13  10   39.26   39.39   0
  -3  10   5   32.48   32.17   0
   0  13  20   -2.45   39.28   0
   3   8  11   -2.98   27.96   0
   3   8  17   75.33   35.91   0
   3   9  14  130.97   34.34   0
  -5  13  10   -3.72   35.62   0
  -3   5   0 1070.32   34.32   0
  -3  12   8  -23.09   36.73   0
  -3  13  10   -5.11   37.78   0
   0  10   7  439.05   27.36   0
   1   6   4 1435.69   25.74   0
   1  12  20  -26.33   39.36   0
   2   3   4 1058.29   20.63   0
   2   5   5  159.28   21.23   0
   2  11  13  -12.47   32.19   0
   2  11  18  -44.59   35.49   0
  -2   8   3  444.45   28.08   0
  -1  14  14  -44.28   39.22   0
   0  12  10  128.79   35.82   0
   1  12  12  195.63   36.38   0
   2  10  20   37.66   41.19   0
   3   6  18   35.37   35.09   0
   3   7   9  140.75   26.88   0
   3   7  18  101.31   35.79   0
   3   9  17   11.98   37.92   0
  -4  11   6    7.49   37.60   0
  -3  14  12   15.15   36.82   0
  -2   7   2  104.48   27.12   0
  -2   9   4   56.69   28.51   0
  -2  13  10   89.33   37.60   0
   0   5   2   94.50   20.98   0
   0  13  12  109.77   40.51   0
   1  10   8  167.14   28.81   0
   1  13  18   50.50   41.00   0
   2  10  10  193.13   29.73   0
   2  11  12  113.62   32.29   0
   3   8  10  131.98   28.40   0
   3   8  18   65.26   35.19   0
   3   9  12   41.92   28.38   0
  -2  12   8  178.25   36.01   0
  -2  15  18   18.59   40.22   0
   0  11   8   31.77   33.28   0
   0  14  16  -18.53   44.15   0
   0  14  18   27.24   40.42   0
   2   8  21   60.82   36.97   0
   2  12  15   49.25   40.42   0
   3   0   7   23.66   27.55   0
  -5  14  12   69.51   34.86   0
  -4  15  15  -70.18   37.01   0
  -3  11   6   93.75   35.84   0
  -3  15  15   12.57   38.94   0
  -2  10   5  308.65   31.50   0
  -2  14  12   57.53   38.45   0
   1  12  11    4.18   35.94   0
   1  13  14  173.46   40.20   0
   2   8   7  345.97   27.61   0
   2   9  21  -14.49   39.28   0
   2  12  18  106.04   40.16   0
   3   9  11  158.58   30.59   0
   3  10  14  102.81   35.33   0
   0  14  20  -26.21   36.94   0
   1   5   3 2688.39   25.11   0
   1  11   9  -12.27   30.13   0
   1  13  20    3.27   40.61   0
   2   7   6   14.63   25.10   0
   2   9   8 1114.84   29.72   0
   2  10  21   14.32   38.90   0
   2  11  11  300.89   34.89   0
   2  12  14  -11.23   40.05   0
   3   7  19   -0.10   35.11   0
   3   8  19  -39.48   37.55   0
   3  10  13  171.90   32.24   0
  -3  13   9   88.86   36.92   0
  -1  15  18   45.50   42.22   0
   0  13  11  -11.47   39.85   0
   0  14  14  103.24   40.15   0
   1  13  13   48.84   41.75   0
   2  12  19  -36.77   39.90   0
   3  10  18   44.06   38.10   0
   4   5  12   31.50   30.71   0
   4   5  13  352.91   34.43   0
  -4  14  11   15.19   35.75   0
  -4  15  14   66.00   38.19   0
  -3  14  11   33.65   36.56   0
  -3  15  14   11.25   38.11   0
  -2   6   1  785.70   27.91   0
  -2  11   6   53.71   36.50   0
   0   8   4 1406.10   28.56   0
   0   9   5  640.81   28.08   0
   0  12   9  189.22   32.87   0
   2   6   5 1642.74   25.47   0
   2  10   9  131.52   29.73   0
   2  12  13  161.62   37.25   0
   3   7   8  205.17   25.63   0
   3   8   9   14.88   28.01   0
   3   9  19  -54.49   36.85   0
   3  10  12   55.60   29.97   0
   4   4  12  169.54   30.81   0
   4   4  13    8.89   33.88   0
   4   5  14   95.77   34.27   0
   4   6  12   67.17   30.20   0
   4   6  13  289.86   31.61   0
   4   6  14    9.34   35.81   0
  -4  12   7    8.74   39.48   0
  -3  12   7  123.67   38.73   0
  -2  14  11   18.87   40.65   0
   0  14  13  -43.30   41.61   0
   1   8   5  310.34   28.24   0
   1   9   6  153.13   28.98   0
   1  14  17   78.73   43.20   0
   2  11  21    0.42   35.52   0
   3   9  10   -2.04   28.70   0
   3  11  15  160.75   37.64   0
   4   4  11  461.52   29.13   0
   4   5  11  175.72   27.87   0
   4   6  15  207.08   35.19   0
   4   7  13   52.14   34.10   0
   4   7  14  260.65   35.10   0
  -4   9   3  432.63   39.75   0
   1  10   7   32.08   29.85   0
   1  12  10   89.49   34.06   0
   1  13  12   53.37   41.27   0
   2  12  12   69.62   34.94   0
   2  13  17  169.44   42.70   0
   2  13  18  -17.86   43.40   0
   3   4   6  173.43   20.96   0
   3  10  19   -2.09   37.09   0
   3  11  14   14.85   37.10   0
   4   5  15    3.95   37.12   0
   4   7  15   55.97   36.92   0
  -4  15  13   21.94   36.42   0
  -3  15  13   -2.20   38.64   0
   0   7   3   81.09   22.89   0
   0  15  17   19.23   39.81   0
   0  15  18  -22.89   40.69   0
   1  14  20  -12.75   40.52   0
   2  13  19   73.71   39.58   0
   3   8  20  -37.73   36.77   0
   3   9  20  -16.25   39.27   0
   3  11  13   71.22   35.41   0
   4   4  10   52.69   27.47   0
   4   6  16   -2.13   36.60   0
   4   7  16   85.49   34.67   0
   4   8  15   85.59   35.04   0
  -4  10   4    0.49   41.07   0
  -2  12   7   73.53   39.41   0
   0  14  12   58.03   42.31   0
   1   7   4  761.07   25.23   0
   1  11   8  269.90   31.89   0
   1  14  14    5.85   43.21   0
   2  12  21  -13.27   38.88   0
   2  13  14   31.74   42.38   0
   4   8  16  170.23   38.04   0
  -4   7   1   19.88   40.01   0
  -4  14  10   49.59   39.63   0
  -3  14  10   86.95   41.31   0
  -1  11   6  161.57   33.57   0
   0  15  15   65.32   39.70   0
   2   9   7   19.18   28.64   0
   3   5   6    1.46   24.00   0
   3   8   8  492.62   28.24   0
   3  10  20  113.09   38.83   0
   3  12  16   23.29   40.67   0
   3  12  17   68.81   41.37   0
  -4  13   8  125.30   42.35   0
  -3   8   2   29.50   34.61   0
  -3  10   4  223.26   36.01   0
  -3  13   8   50.40   43.23   0
   1  13  11   33.11   40.72   0
   2   8   6  426.34   28.30   0
   2  10   8  -23.55   30.82   0
   2  13  13  241.27   46.02   0
   3   9   9  141.46   30.15   0
   3  11  12  118.29   32.63   0
   3  12  15   -4.50   38.47   0
   4   7  17  115.70   37.16   0
   4   8  17   62.46   36.50   0
   4   9  16  107.28   38.03   0
  -2  14  10   95.71   38.63   0
   0   4   1   10.71   20.28   0
   1  14  13   62.32   41.31   0
   1  15  18  -26.27   47.16   0
   3   7   7   52.05   26.56   0
   3  10  10   64.69   31.74   0
   3  11  20   56.28   39.98   0
   3  12  14   60.35   41.23   0
   4   4   9  471.08   25.72   0
   4   6  17    4.85   37.03   0
   4   8  11  339.84   33.15   0
   4   9  17   -2.55   39.29   0
  -4  11   5   65.51   41.11   0
  -3  11   5   57.78   41.18   0
  -3  16  15  -11.27   35.55   0
  -2  16  15   19.99   40.26   0
  -1  12   7  135.50   37.13   0
   1   6   3  428.25   24.92   0
   1  15  16   48.40   48.92   0
   1  15  17   55.69   42.46   0
   1  15  19  101.95   41.85   0
   2   2   3 4712.00   32.32   0
   2   7   5  596.11   26.55   0
   2  11   9  189.89   33.33   0
   2  14  16   51.13   44.08   0
   2  14  18  -62.84   40.46   0
   2  14  19    4.40   40.17   0
   3   0   6  567.82   30.43   0
   3   9  21  -40.81   36.20   0
   4   2  11  316.14   33.20   0
   4   2  12   62.96   34.44   0
   4   3   9  156.43   28.82   0
   4   9  12   75.08   34.53   0
   1   4   2  308.83   20.29   0
   2  13  12  197.74   45.71   0
   2  14  15   39.22   43.28   0
   3  10  21   -9.33   38.01   0
   3  12  13   57.14   41.85   0
   4   2  10  247.25   31.61   0
   4   8  18   77.06   35.67   0
   4  10  14   11.83   37.43   0
   4  10  17   54.80   38.83   0
  -3  16  14   50.65   40.93   0
  -2   9   3  462.62   33.85   0
  -2  10   4   38.56   34.26   0
  -1  14  10   42.42   41.01   0
   0  16  18   61.04   42.38   0
   1  14  12  -73.89   43.88   0
   1  15  15   26.75   46.87   0
   2  12  10   71.64   34.45   0
   3   6   6  308.63   24.96   0
   3  12  20  -19.68   40.04   0
   3  13  16   95.19   43.08   0
   3  13  17   -5.59   43.86   0
   3  13  18   12.86   42.00   0
   4   9  18   11.06   36.46   0
   4  10  13   19.96   38.00   0
   1   9   5  681.89   31.31   0
   1  10   6  553.86   30.05   0
   2   3   3  148.26   19.41   0
   3   3   5   82.47   22.29   0
   3   9   8   -6.51   30.34   0
   3  11  21   69.33   37.50   0
   3  13  15   28.23   40.69   0
   4   8  10    2.55   28.62   0
   4   9  11  186.13   31.07   0
   4  10  18   -2.81   36.55   0
  -3  12   6  -48.58   41.96   0
  -3  14   9  -16.44   42.53   0
  -3  15  11   20.68   41.31   0
  -2   5   0   59.63   30.58   0
  -2  11   5   92.72   36.28   0
  -1  13   8   -0.16   39.12   0
   0  16  16   40.40   41.89   0
   3  10   9  375.92   32.30   0
   4   8  19   39.34   37.62   0
   4   9  19   16.21   38.31   0
   4  11  15   -7.56   39.74   0
  -2   8   2   87.51   31.95   0
  -2  15  11   78.10   41.01   0
   1   8   4   83.68   28.68   0
   2   9   6  245.58   30.74   0
   2  13  11   25.35   41.96   0
   2  15  18  -24.46   46.38   0
   3   4   5   55.77   20.47   0
   3  11  10  117.20   34.80   0
   3  12  21    4.32   37.75   0
   3  13  14   62.40   42.21   0
   4  10  19  -51.07   40.91   0
   4  11  14   37.61   40.34   0
   4  11  18  -32.77   40.88   0
  -3  16  13  -54.68   42.41   0
  -2  12   6  131.92   40.84   0
   1  12   8   72.83   35.45   0
   1  14  11   30.96   45.03   0
   1  16  18  -39.13   45.48   0
   2  11   8  239.59   33.08   0
   2  15  17   -8.15   44.76   0
   2  15  19  -66.04   41.04   0
   4   6   8  294.84   28.00   0
   4  11  13   68.66   40.90   0
  -2  16  13   48.98   41.40   0
  -1  15  11   40.23   41.34   0
   2   4   3 1031.77   23.04   0
   2   8   5   93.38   28.46   0
   2  12   9  -15.02   37.01   0
   2  15  20  -51.64   39.59   0
   3  13  13  214.01   45.75   0
   3  14  17  -40.74   45.76   0
   3  14  18   61.11   42.65   0
   4   9  10  320.48   30.66   0
   4  10  11  104.33   34.44   0
   4  11  19  129.67   42.29   0
   4  12  16   95.72   42.65   0
  -3  13   7   71.32   43.13   0
  -1  10   4  961.49   35.24   0
  -1  11   5  158.82   36.80   0
  -1  14   9  -44.21   43.78   0
  -1  16  13   -9.97   44.12   0
   1  13   9  192.22   41.58   0
   1  16  16   36.27   42.24   0
   2  15  15   27.83   50.63   0
   3   5   5  366.21   24.58   0
   3  14  16   14.62   47.35   0
   3  14  19   41.54   39.98   0
   4   9  20  -65.25   40.74   0
   4  10  20   27.68   40.94   0
   4  12  15   76.26   41.80   0
  -2  13   7  194.01   42.56   0
  -1  17  16  -58.05   44.19   0
   2  14  12  104.01   45.84   0
   3  14  15    8.91   46.27   0
   4   7   8   63.27   30.71   0
   4  12  14  137.54   41.53   0
  -3  15  10   54.59   40.87   0
  -1   9   3  -44.65   32.36   0
  -1  12   6  -26.99   41.77   0
   1   7   3 2245.48   29.15   0
   1  16  15   20.41   42.79   0
   2  13  10  200.95   42.56   0
   2  15  14   37.17   47.41   0
   3   9   7  663.44   31.99   0
   3  10   8  362.70   33.55   0
   3  11   9   -8.25   36.14   0
   4   1  10   14.79   35.78   0
   4  11  20  -76.11   42.33   0
   4  12  19   18.76   43.09   0
   5   7  13  481.36   40.01   0
   5   7  14   -1.65   39.55   0
   5   8  14   60.44   39.88   0
  -2   7   1   30.30   34.00   0
  -2  16  12   57.89   42.08   0
   0   5   1 2586.47   31.18   0
   1  15  12   51.38   43.24   0
   2   7   4  210.63   27.46   0
   3  12  10   59.22   39.28   0
   3  14  14  -21.22   44.77   0
   4   5   7  -23.18   26.35   0
   4   9   9   98.43   34.21   0
   4  10  10  475.41   34.53   0
   4  12  13  209.28   42.50   0
   4  13  16   19.30   46.22   0
   4  13  17   12.01   43.47   0
   5   6  13   72.90   38.32   0
   5   6  14  124.88   39.99   0
   5   7  15   49.96   38.92   0
   5   8  13   70.37   37.19   0
   5   8  15   95.66   39.09   0
  -1  13   7   61.55   44.20   0
  -1  17  15  -29.17   41.25   0
   1  11   6   21.25   35.46   0
   1  16  14  136.40   44.38   0
   2  16  17   78.13   47.35   0
   2  16  18   29.99   45.45   0
   2  16  19   96.76   44.21   0
   3   8   6  -15.75   32.17   0
   3  15  18   38.93   43.04   0
   4  12  20    5.52   41.44   0
   5   6  15   29.90   39.86   0
   5   7  12   24.67   33.68   0
   5   7  16   -2.43   40.50   0
   5   8  16   31.06   39.89   0
   5   9  15  -96.06   41.28   0
   5   9  16   76.00   38.68   0
  -3  14   8  170.97   45.63   0
  -2  14   8   15.66   45.98   0
  -1  15  10  122.79   41.18   0
   1  10   5   -7.65   29.84   0
   2  10   6   13.61   32.68   0
   2  11   7  285.61   32.97   0
   2  14  11  134.32   46.67   0
   2  16  16   22.68   50.57   0
   3  15  16   55.24   51.99   0
   3  15  17   93.14   45.95   0
   3  15  19  -31.45   45.06   0
   4   1   9  134.52   34.78   0
   4   3   7  281.29   27.43   0
   4   6   7  238.37   30.05   0
   4   8   8  258.45   31.95   0
   4  11  21  -93.06   40.99   0
   5   5  12  250.59   35.96   0
   5   5  13    9.88   40.13   0
   5   8  17  131.79   40.34   0
   5   9  17  -35.32   41.77   0
   5  10  16   98.27   41.20   0
  -2  17  14   20.69   43.15   0
  -1   8   2  305.08   32.01   0
   1  17  17   27.99   49.60   0
   3  13  11  340.26   44.67   0
   3  15  20  -10.00   41.14   0
   4  12  12   16.18   43.60   0
   5   6  11  215.07   33.02   0
   5   6  16  116.94   41.36   0
   5  10  17   34.80   39.22   0
   1   9   4  190.06   31.79   0
   2   9   5   92.57   31.50   0
   2  13   9   47.65   44.80   0
   3  15  15   49.52   49.47   0
   4  13  20  -49.08   42.90   0
   5   7  17  -27.05   39.76   0
  -3  10   3   48.03   43.07   0
  -3  11   4  -34.25   45.48   0
  -1  14   8  134.28   45.07   0
   0  16  12  -47.08   43.48   0
   1  17  16   18.74   46.41   0
   3   7   5   89.45   30.10   0
   3  10   7   -3.89   33.96   0
   3  11   8  311.43   37.35   0
   4  10   9  256.76   35.45   0
   4  13  13  -37.57   46.72   0
   4  14  16  104.35   49.37   0
   4  14  18 -126.68   46.50   0
   5  10  18   52.07   42.09   0
   5  11  17   51.52   41.03   0
  -3  12   5   83.19   47.51   0
  -2  11   4  556.48   44.75   0
   0  13   7  106.16   41.50   0
   1   2   1   25.65   19.11   0
   2  15  12    3.90   47.43   0
   3   3   4  871.33   25.83   0
   3   4   4   10.27   24.78   0
   3  12   9   87.18   39.00   0
   4  12  11  199.98   39.82   0
   5   6  10   22.16   32.15   0
   5  11  18   18.02   44.36   0
  -2  10   3  156.90   40.03   0
  -2  12   5  171.74   47.11   0
  -2  15   9  109.83   45.61   0
  -2  17  13  -47.56   43.78   0
   2  14  10  -12.93   48.20   0
   2  16  14   20.55   49.42   0
   2  17  18   17.59   45.06   0
   3   9   6  533.62   34.92   0
   3  13  10  -53.62   42.95   0
   3  16  19  -55.94   41.44   0
   4   1   8  124.07   35.02   0
   5   5  10   33.31   32.43   0
   5   9  11  210.96   36.38   0
   5  10  19  -45.76   47.95   0
  -3   9   2  250.39   46.56   0
  -1  17  13   27.12   43.66   0
   0  14   8   54.34   46.97   0
   1   8   3  436.32   30.76   0
   2   8   4  332.19   30.57   0
   2  17  17  -19.24   45.82   0
   3   0   5  169.34   32.15   0
   3  16  17  -35.19   48.15   0
   4  13  12  101.39   48.81   0
   5   8  10  215.80   35.10   0
   5  11  13  100.35   42.44   0
   5  11  19  -76.72   44.76   0
   5  12  15   28.86   42.84   0
   5  12  18   34.31   44.99   0
  -3  13   6   72.30   47.50   0
  -1  15   9   20.60   46.85   0
   0  16  11  -52.13   47.44   0
   1   3   1   55.65   22.30   0
   3   5   4    5.99   26.20   0
   3  14  11   75.23   52.73   0
   3  16  16    6.84   50.68   0
   4  15  17  105.94   48.47   0
   4  15  18  141.80   46.94   0
   5   4  10  227.06   34.63   0
   5  12  14  101.67   47.03   0
   0  17  13   42.85   44.48   0
   2  11   6  390.88   38.05   0
   2  12   7   43.54   42.36   0
   2  15  11  224.38   48.36   0
   2  16  13   47.67   49.07   0
   2  17  16   21.48   45.59   0
   3  16  15  -10.26   55.71   0
   4   6   6  193.74   29.91   0
   4  11   9  129.32   39.38   0
   4  15  16   44.23   54.54   0
   5   9  10   72.11   39.73   0
   5  11  12  165.63   43.70   0
   5  12  19  -47.59   43.56   0
  -2   9   2   38.34   42.14   0
  -1   7   1   22.63   33.79   0
   0  15   9   -0.07   48.96   0
   3   8   5  592.34   31.61   0
   4  10   8  168.60   36.49   0
   4  12  10   99.11   39.66   0
   5   5   9   42.72   31.70   0
   5  11  20   25.74   46.92   0
   5  12  13   44.23   48.59   0
   5  13  16  121.32   44.46   0
  -2  14   7  151.44   49.39   0
  -2  16  10  -18.42   44.96   0
  -2  17  12   41.13   46.41   0
  -1  10   3  559.24   40.97   0
   2  10   5  554.16   34.80   0
   2  17  15    3.44   47.45   0
   3  11   7  348.77   38.52   0
   3  12   8  -22.30   38.98   0
   4  15  15    2.34   53.52   0
   5   8   9  -12.79   36.26   0
   5  12  20   59.03   45.55   0
   5  13  15  -40.13   46.04   0
   5  13  19    0.85   48.05   0
  -1  14   7  -35.62   46.67   0
  -1  16  10  -64.85   45.92   0
  -1  17  12  -33.45   47.47   0
   0  18  15  -56.79   44.37   0
   2  14   9  176.60   47.56   0
   3  10   6  264.97   37.01   0
   3  13   9  203.71   44.83   0
   3  17  18   65.55   49.71   0
   4   9   7  214.24   35.59   0
   5   3  11  151.65   39.16   0
   5  10  10  193.72   39.45   0
   5  13  14   47.73   49.86   0
   2   7   3  124.14   30.12   0
   2  16  12  -67.38   48.08   0
   2  17  14  122.58   52.51   0
   3  14  10   -3.69   53.64   0
   3  17  17   24.32   50.02   0
   4  15  14   -5.19   52.46   0
   4  16  18   25.44   48.53   0
   4  16  19    1.95   49.14   0
   5  12  12   96.99   47.58   0
   5  13  20   11.39   50.08   0
  -3   8   1  313.33   49.43   0
  -2   6   0  670.84   43.29   0
   0  12   5   -4.98   41.17   0
   0  17  12   26.85   47.22   0
   1   7   2   99.95   28.93   0
   2   9   4  206.42   33.97   0
   2  15  10   91.79   52.14   0
   3  17  16   67.10   54.00   0
   4  16  17   -7.56   51.04   0
   5  13  13   18.79   50.20   0
   5  14  16   40.76   48.23   0
  -2  15   8   25.98   49.37   0
  -1   9   2  665.55   42.16   0
   0  11   4  397.84   40.01   0
   0  18  14  140.61   45.81   0
   3   7   4  103.61   32.18   0
   3   9   5    3.10   36.00   0
   4   1   7   11.07   35.95   0
   4   8   6 1071.38   35.82   0
   4  11   8   32.12   40.92   0
   4  12   9  103.35   41.85   0
   4  16  16  -59.68   49.94   0
   5  14  15   89.11   52.99   0
   6   8  14   34.93   45.00   0
   6   9  14   94.95   46.06   0
   6   9  15   70.54   43.81   0
   6  10  15  -22.43   47.05   0
  -1  15   8  112.32   50.44   0
   0  14   7  213.87   50.14   0
   2  18  16  194.56   50.99   0
   3  15  11  -11.82   52.03   0
   3  17  15   82.19   52.64   0
   4  10   7  657.00   38.38   0
   5  11  10  255.28   40.20   0
   5  12  11  101.71   47.57   0
   6   8  13  159.88   45.64   0
   6   9  13  124.85   45.23   0
   6   9  16   46.03   47.10   0
   6  10  14  130.56   45.16   0
   6  10  16    0.48   42.29   0
  -2   8   1   87.69   44.87   0
   0  10   3  535.79   39.89   0
   2  12   6  532.72   44.91   0
   4   5   5   22.96   28.50   0
   4  14  11   16.10   53.89   0
   4  16  15  161.25   55.20   0
   5   8   8  214.41   34.29   0
   5  13  12  -35.99   52.93   0
   5  14  14  -72.22   53.85   0
   6   7  13    9.90   44.38   0
   6   7  14   93.88   47.13   0
   6   8  16   31.08   46.36   0
   6   9  17    1.14   45.23   0
   6  10  17  130.31   45.54   0
   6  11  15 -111.42   48.38   0
   6  11  16  153.21   44.33   0
   6  11  17   36.07   47.90   0
  -1  18  13  -22.55   44.84   0
   0  15   8  107.05   49.76   0
   1  16  10   90.50   49.56   0
   3  12   7  366.08   41.10   0
   3  13   8  195.05   46.00   0
   4   4   5   29.21   25.45   0
   4   6   5   84.85   30.67   0
   5  15  16  -21.04   55.34   0
   6   7  12  218.07   45.74   0
   6   8  12   18.36   42.32   0
   6  12  16   51.48   52.47   0
   0  17  11   11.57   51.32   0
   0  18  13   68.59   47.73   0
   1   5   1  518.25   28.73   0
   2   8   3  779.17   36.53   0
   2  11   5  277.48   40.06   0
   3  11   6  166.95   39.18   0
   3  14   9    4.65   53.08   0
   3  16  12    1.42   53.54   0
   3  17  14   94.15   53.15   0
   4  15  12  -62.10   54.44   0
   4  16  14  -26.31   58.31   0
   4  17  18  -37.98   44.63   0
   5   9   8   59.13   36.58   0
   5  14  13  120.32   50.21   0
   6  10  18  -38.87   45.99   0
   6  11  18  -43.69   49.35   0
   6  12  17   56.90   47.46   0
   1  14   7   74.02   50.69   0
   3   8   4  139.59   35.43   0
   4  17  17   57.63   52.31   0
   5  12  10    9.70   46.47   0
   5  15  15   -5.73   57.61   0
   6   6  14   40.16   45.49   0
   6   7  11  129.14   42.10   0
   6  12  18  -11.35   51.39   0
  -2  12   4   69.64   51.16   0
  -2  13   5   82.74   52.59   0
   0  16   9   43.99   51.92   0
   3   5   3   75.59   29.41   0
   3  10   5   36.65   39.01   0
   3  18  16   24.66   55.87   0
   4   7   5  448.10   32.44   0
   4  13   9   86.50   46.31   0
   4  17  16   80.39   56.29   0
   5   7   7   79.85   33.69   0
   5  11   9   61.72   41.29   0
   5  13  11  105.37   54.72   0
   6  11  19   68.77   50.91   0
   6  12  19  -64.19   56.16   0
   6  13  17  -25.14   50.40   0
  -2  11   3   11.38   52.37   0
  -2  14   6  -21.38   55.31   0
  -1  13   5   31.65   51.94   0
   1  17  11   23.44   49.10   0
   1  18  13   39.83   50.87   0
   2   6   2  526.63   30.81   0
   3  17  13   62.12   55.16   0
   4  11   7  144.46   41.81   0
   5  10   8  205.65   40.62   0
   5  15  14   11.67   58.62   0
   5  16  17   82.40   51.72   0
   5  16  18   96.26   53.41   0
   6   6  11   15.48   44.47   0
   6  10  11  -25.18   45.37   0
   6  11  12  197.78   47.41   0
   6  12  13   11.54   51.00   0
   6  13  18  -25.11   53.21   0
  -1  14   6  -33.53   55.07   0
  -1  18  12   30.68   48.61   0
   0   9   2   91.44   35.06   0
   3  16  11  -14.49   55.62   0
   4  15  11   -6.20   55.22   0
   4  17  15    2.05   54.09   0
   5   8   7   64.79   36.26   0
   5  16  16  -48.51   54.05   0
   6   7  10   86.83   42.70   0
   6  13  19   24.21   51.23   0
  -1   8   1   28.47   39.66   0
  -1  17  10   57.50   48.75   0
   0  18  12   34.23   53.06   0
   3   6   3    8.88   29.57   0
   3  18  15  102.25   55.59   0
   4   8   5   43.26   36.70   0
   4  10   6  -30.50   41.20   0
   5   2  10   89.66   42.06   0
   5   4   7  102.22   31.64   0
   5  15  13   34.74   60.52   0
   6  14  18  -50.84   54.47   0
  -1   6   0  125.59   36.85   0
   0  13   5  178.77   54.26   0
   1   6   1  514.72   31.11   0
   1  16   9   81.25   50.28   0
   3   9   4  462.13   41.21   0
   3  13   7   72.03   47.43   0
   3  14   8  -53.49   54.30   0
   4   1   6   43.73   34.74   0
   5   9   7  338.17   40.10   0
   5  12   9  133.74   44.13   0
   5  16  15   22.64   58.26   0
   6   6  10  471.82   40.33   0
   6  11  11   79.10   48.66   0
   6  12  12  -22.42   50.49   0
   6  13  13  -85.89   54.66   0
   6  14  19   13.69   48.14   0
   0  12   4  124.83   50.51   0
   0  14   6  131.65   50.88   0
   0  17  10   -7.94   50.80   0
   3  12   6  -35.55   44.27   0
   4  16  12   96.08   61.14   0
   4  17  14   76.28   57.91   0
   5  11   8  146.34   43.90   0
   5  14  11  100.82   57.20   0
   6   5  11  217.09   43.07   0
   6  10  10   97.17   43.05   0
  -2  10   2   65.14   51.53   0
   0  15   7   58.98   54.24   0
   1  18  12    3.40   50.34   0
   2   7   2 1141.40   36.86   0
   3   7   3   65.05   34.29   0
   3  15   9   14.60   53.29   0
   3  18  14   11.51   52.76   0
   4  12   7   27.65   45.04   0
   4  14   9  173.14   56.47   0
   5  16  14   49.62   60.51   0
   5  17  17  -89.86   55.39   0
   6  14  14   80.54   55.88   0
   4   5   4  699.29   32.90   0
   4   9   5  315.45   39.07   0
   4  15  10   69.36   53.67   0
   4  18  16   16.74   53.27   0
   5   6   6  523.71   34.64   0
   5  15  12  165.80   57.00   0
   6   5  10   33.52   39.65   0
   6   9   9  103.41   45.28   0
   6  13  12   87.31   51.99   0
   6  15  16  170.73   55.68   0
  -1  10   2  113.22   44.73   0
  -1  16   8   13.26   50.40   0
   0  11   3   44.91   46.19   0
   4   4   4  127.38   29.91   0
   4  11   6  131.74   43.61   0
   4  17  13  -54.17   57.93   0
   5  10   7  175.38   41.57   0
   5  17  16   45.18   55.36   0
   6   6   9   26.49   37.61   0
   6  11  10  -37.34   48.37   0
   6  14  13  -28.32   56.98   0
   6  15  15   82.37   58.68   0
   0  18  11   -2.56   54.46   0
   1  13   5   52.68   48.72   0
   1  14   6  120.77   53.37   0
   2  18  12 -125.74   54.16   0
   4   7   4  344.74   37.57   0
   4  16  11   27.49   58.70   0
   4  18  15 -164.49   55.48   0
   5   8   6   29.80   38.95   0
   5  13   9   76.11   53.18   0
   5  14  10  192.60   60.63   0
   5  16  13  -35.66   64.05   0
   5  17  15    0.17   64.17   0
   6  10   9  156.75   48.68   0
   0   8   1  213.20   39.14   0
   1  12   4   81.81   47.33   0
   1  15   7  194.47   54.35   0
   3   0   4   67.26   36.23   0
   3   8   3  643.47   40.38   0
   3  10   4  633.48   42.80   0
   5  12   8   32.77   45.78   0
   6  15  14  -34.36   60.00   0
   6  16  17   37.51   57.67   0
   7  10  14   11.72   48.62   0
   7  10  15   12.28   48.90   0
   7  11  15  -48.77   46.69   0
   7  11  16   29.79   49.43   0
   1   7   1 2202.98   40.41   0
   1  16   8  -61.37   54.00   0
   1  18  11   55.85   54.29   0
   2  17  10   71.16   53.37   0
   4   3   4   22.55   31.41   0
   5   2   8  -14.86   40.92   0
   5  15  11  -24.95   57.66   0
   6  13  11   14.03   55.51   0
   6  14  12   63.63   54.56   0
   6  16  16   51.63   57.21   0
   7   9  13  -11.00   51.40   0
   7   9  14   57.21   46.60   0
   7  10  13   -8.01   50.34   0
   7  11  14   10.69   51.76   0
   7  11  17  -18.70   52.86   0
   7  12  15  103.18   51.07   0
   7  12  16   82.08   52.46   0
   7  12  17  -72.25   57.91   0
   2   8   2  156.15   38.31   0
   3  13   6  187.65   52.45   0
   3  14   7   22.37   53.79   0
   4   8   4  627.55   40.47   0
   4  13   7  347.86   56.66   0
   4  14   8   -0.38   57.52   0
   4  17  12  166.43   57.34   0
   4  18  14   46.86   56.00   0
   5  11   7   33.74   46.38   0
   5  16  12   78.47   69.39   0
   5  17  14  -88.79   60.83   0
   7   8  14   69.75   51.06   0
   7  10  17  -26.49   48.24   0
   7  13  16   56.64   54.09   0
   7  13  17   87.59   56.32   0
   4  15   9   99.24   56.07   0
   6  15  13  189.69   63.83   0
   6  16  15  141.08   56.05   0
   7   8  13   60.64   47.79   0
   7   8  15   82.26   49.65   0
   7   9  12   41.92   50.34   0
   7  11  18    4.19   54.73   0
   7  13  18   67.36   53.95   0
  -2   9   1  388.45   54.42   0
   1  17   9  -46.60   56.10   0
   2   4   1  712.57   29.82   0
   2  18  11   10.89   59.63   0
   2  19  13  121.59   52.61   0
   3  12   5  121.15   47.12   0
   4  12   6   76.03   46.31   0
   4  16  10  221.87   57.48   0
   6  10   8  -71.09   47.06   0
   7   8  12  167.75   50.93   0
   7  14  17 -149.03   59.77   0
  -1  13   4  197.92   57.48   0
  -1  15   6   67.14   59.81   0
   2   3   1 1158.57   32.40   0
   2   5   1  210.83   31.37   0
   2  16   8   37.45   57.88   0
   3   4   2  353.13   31.16   0
   4   0   7  747.67   55.83   0
   4  18  13  109.33   63.05   0
   5   6   5  -18.93   36.93   0
   5   7   5  545.15   39.05   0
   5  10   6  312.26   44.33   0
   5  13   8   93.36   52.85   0
   5  14   9  -45.29   60.74   0
   5  15  10  -76.92   58.41   0
   5  17  13  131.61   62.05   0
   6   5   8  170.62   38.80   0
   6  12   9   79.72   53.87   0
   6  13  10   96.16   57.39   0
   6  14  11  215.94   56.97   0
   6  16  14   91.70   60.25   0
   7   7  13   42.10   50.66   0
   7   9  11   57.24   48.93   0
   7  14  18   90.79   53.37   0
  -1   7   0  121.79   43.23   0
   0  14   5   52.65   56.34   0
   0  15   6  220.82   60.11   0
   0  18  10   11.01   53.75   0
   3   6   2   77.99   34.60   0
   3   9   3   14.32   39.43   0
   4   9   4  148.37   42.32   0
   4  11   5   48.26   45.20   0
   4  17  11  172.63   58.21   0
   5   5   5  695.23   37.33   0
   5  12   7  255.32   48.00   0
   5  16  11   16.77   69.98   0
   5  18  15   73.52   59.77   0
   6  17  16   -9.04   57.48   0
   7   7  12  -70.28   52.61   0
   7   7  14   28.92   50.21   0
   7   8  11   33.09   49.20   0
   7  13  13 -104.31   53.18   0
  -1  12   3   -5.15   58.84   0
   0  13   4  -58.09   55.23   0
   2  17   9   45.90   56.83   0
   3  11   4   -6.79   44.53   0
   5   8   5  284.35   40.99   0
   6  11   8   72.38   46.16   0
   6  16  13  105.07   67.51   0
   7  14  14 -155.72   55.19   0
   0  16   7  -45.26   56.34   0
   2   6   1  566.50   36.64   0
   2   9   2   75.98   41.19   0
   4   1   5  115.73   33.97   0
   5  18  14   46.14   60.47   0
   6   9   7   89.48   42.64   0
   6  17  15  -11.67   59.37   0
   7   7  11  212.92   51.23   0
   7  13  12   -9.11   58.22   0
   7  15  15 -109.27   63.43   0
   0  12   3  245.20   54.83   0
   1   3   0  332.45   30.92   0
   1  15   6  131.33   55.93   0
   2  19  12   34.51   51.71   0
   4   5   3 1766.71   38.86   0
   4  14   7  227.86   58.33   0
   4  15   8  248.59   59.11   0
   4  18  12  130.81   62.05   0
   5  11   6   30.57   47.61   0
   5  17  12   90.41   65.39   0
   6  13   9  140.39   61.04   0
   6  15  11  -42.05   66.27   0
   7  12  11  124.30   55.43   0
   7  14  13    5.58   61.16   0
   0   9   1  518.00   46.43   0
   1  13   4  136.18   58.78   0
   1  16   7  170.70   57.91   0
   2   2   1 2586.82   39.10   0
   4   4   3  384.85   35.09   0
   4   7   3  447.36   41.52   0
   4  10   4  312.42   48.26   0
   4  13   6  -29.91   54.76   0
   4  16   9  -76.88   58.44   0
   5  14   8  200.95   61.78   0
   6  10   7  191.07   46.06   0
   6  17  14  -43.19   65.42   0
   7   6  12   34.70   52.05   0
   7  11  10  125.86   57.05   0
   7  15  14  -27.41   62.01   0
   0  17   8   42.39   54.10   0
   2  18  10  -80.31   57.07   0
   3  10   3  337.96   45.82   0
   4  17  10  -31.14   58.89   0
   5  13   7   43.27   57.21   0
   5  16  10  -78.98   67.50   0
   5  18  13    8.68   63.08   0
   6   4   8   10.74   40.91   0
   6   5   7   40.36   39.76   0
   6  12   8  144.45   51.51   0
   6  16  12  212.29   68.13   0
   7   7  10  230.28   50.37   0
   1  17   8   87.04   55.13   0
   1  19  11  -78.51   52.94   0
   2   7   1   44.06   39.46   0
   3  19  12  -88.68   62.33   0
   4  12   5  -21.05   48.17   0
   5  10   5   45.93   45.01   0
   7   6  11  289.83   52.73   0
   7  12  10   -6.10   60.74   0
   7  14  12  -19.81   62.79   0
   7  15  13   45.79   70.43   0
   7  16  15  -64.06   63.72   0
   0   7   0 1082.29   43.20   0
   0  11   2   69.19   53.56   0
   2  14   5  -31.80   59.15   0
   2  15   6  106.99   59.89   0
   2  16   7   20.29   59.03   0
   3   8   2  697.61   41.12   0
   4   8   3   93.74   42.01   0
   5  12   6   96.40   49.84   0
   6   3  10  126.23   48.84   0
   6   7   6  173.77   41.59   0
   6   8   6   38.92   43.65   0
   6  11   7  272.16   48.87   0
   6  17  13   88.09   66.17   0
   6  18  15  -74.25   60.19   0
   7  10   9  -61.92   51.80   0
   2  19  11  -37.06   57.23   0
   3  18  10  -28.73   57.14   0
   5   6   4 1202.47   40.84   0
   6  15  10   -2.49   66.11   0
   7   6  10   29.10   52.50   0
   7   7   9   42.58   47.15   0
   7  11   9   15.24   58.09   0
   7  16  14  191.95   62.53   0
   8  11  15   54.00   54.78   0
   8  12  15   72.85   61.27   0
   8  12  16 -150.45   63.60   0
   2  13   4   25.10   55.27   0
   4  11   4  201.67   49.93   0
   5   5   4  822.06   40.91   0
   5   8   4  -31.01   44.33   0
   5  18  12   73.20   64.36   0
   6   9   6   75.00   44.62   0
   6  13   8   75.84   61.98   0
   6  16  11 -116.55   69.05   0
   7  13  10   14.94   61.48   0
   7  14  11  -36.65   65.69   0
   8  10  14   90.03   57.62   0
   8  10  15    1.31   54.75   0
   8  11  14    2.33   52.68   0
   8  11  16   -1.54   54.53   0
   8  12  14    4.96   54.76   0
   8  12  17  -88.93   60.44   0
   8  13  15  -69.46   65.95   0
   8  13  16  -92.57   61.53   0
   8  13  17   14.96   63.01   0
   4   9   3  619.23   46.51   0
   4  14   6  -11.15   62.96   0
   4  15   7   69.74   61.04   0
   5  15   8  -14.16   61.44   0
   6   4   7  368.96   43.07   0
   6  12   7   53.01   56.44   0
   6  17  12  108.87   69.91   0
   6  18  14  -99.22   64.66   0
   8  10  13   27.90   53.10   0
   8  11  13  -42.50   53.97   0
   8  13  14   84.65   63.97   0
   8  14  16 -125.71   67.64   0
   1  11   2  105.69   50.98   0
   2   8   1  921.99   44.45   0
   2  18   9  176.37   60.33   0
   3  11   3  231.61   52.20   0
   4   0   6  146.49   57.30   0
   5  14   7   48.64   64.32   0
   5  16   9  164.27   64.83   0
   6  10   6   60.40   48.74   0
   7   6   9  240.68   48.96   0
   7   9   8 -105.20   47.99   0
   7  12   9  124.59   61.34   0
   7  16  13  205.83   63.78   0
   7  17  15  110.77   64.32   0
   8   9  14    0.49   53.93   0
   8  12  13   86.73   58.72   0
   8  14  15   86.69   63.24   0
  -2   8   0   80.99   59.84   0
  -1   8   0 1223.54   53.44   0
  -1  10   1   79.27   58.28   0
   0  14   4  238.93   65.33   0
   3  16   7   70.20   61.23   0
   3  19  11   19.33   59.25   0
   4  13   5   63.87   57.06   0
   5   9   4  345.43   45.78   0
   5  13   6  230.83   61.51   0
   7  10   8  234.95   51.82   0
   8   9  13  -70.09   57.34   0
   8  10  12  213.87   56.90   0
   8  11  12  234.93   57.24   0
   3  17   8   44.38   59.41   0
   5   4   4  165.12   36.27   0
   5  19  13  -52.00   63.96   0
   6  11   6  333.27   51.83   0
   6  15   9   63.11   66.03   0
   6  16  10   38.70   71.94   0
   6  18  13   31.36   64.31   0
   7  11   8   85.95   58.82   0
   7  15  11    4.33   73.98   0
   7  17  14   39.88   61.83   0
   8   9  12   78.16   54.11   0
   8  15  16  -70.09   58.39   0
  -1   5  -1  798.91   48.75   0
   0  10   1   10.58   51.71   0
   0  13   3   48.55   67.14   0
   1  14   4  113.68   61.28   0
   1  16   6   10.83   62.41   0
   3   5   1   -0.89   36.07   0
   4  10   3  440.87   46.82   0
   5  18  11   91.47   64.76   0
   6  13   7   76.27   68.74   0
   6  17  11   43.68   75.07   0
   7  13   9   20.64   62.25   0
   7  16  12   77.29   70.70   0
   8  10  11  100.07   57.40   0
  -1  13   3   36.06   67.71   0
   0   8   0  204.44   50.73   0
   1  17   7  -20.81   58.75   0
   2  19  10   40.81   60.75   0
   3   6   1  169.32   39.59   0
   3  18   9   80.16   61.90   0
   4   5   2  161.61   37.98   0
   4   6   2  583.19   41.81   0
   4  12   4  -15.17   54.73   0
   5  10   4  235.32   48.68   0
   5  12   5  112.03   52.37   0
   6   7   5  164.11   43.25   0
   6   8   5  206.57   44.70   0
   7   6   8   32.33   46.31   0
   7  17  13  -31.51   72.16   0
   8   8  13  117.91   56.72   0
   8   9  11   10.73   55.50   0
   1  13   3  -29.99   65.73   0
   2  15   5  -62.57   65.23   0
   2  16   6   13.55   60.75   0
   3   4   1  991.45   34.36   0
   4   7   2  451.68   44.45   0
   6   6   5  925.59   41.33   0
   6   9   5  299.20   48.34   0
   6  18  12  -43.52   66.42   0
   7   9   7   65.84   51.37   0
   8   8  12   15.59   57.56   0
   2  14   4   80.84   67.98   0
   2  17   7   50.82   60.60   0
   3   7   1   91.10   41.98   0
   3  10   2  109.63   45.19   0
   5  15   7  253.84   64.78   0
   5  19  12 -145.14   62.65   0
   6   4   6  509.56   41.70   0
   6  12   6  191.83   55.42   0
   7  10   7   67.69   53.76   0
   7  14   9   41.97   69.66   0
   7  15  10   61.96   71.57   0
   7  16  11   93.38   76.78   0
   8   8  11  103.72   54.31   0
   8  13  11   99.67   63.84   0
   8  14  12  -28.71   63.55   0
   8  15  13   42.47   67.98   0
   0  12   2   32.00   65.65   0
   1  18   8   25.95   60.05   0
   2   5   0   54.86   36.78   0
   3  19  10   28.90   57.70   0
   4   8   2  383.27   46.04   0
   5   6   3   39.44   41.95   0
   5  14   6   88.37   65.77   0
   6  15   8   49.10   66.34   0
   6  16   9  127.12   72.96   0
   8   9  10   28.43   55.85   0
   8  16  14  -11.61   68.63   0
  -1  12   2  107.39   66.72   0
   2   4   0 4343.41   44.82   0
   2  18   8   90.71   65.02   0
   4  11   3   15.37   50.59   0
   5   1   7  468.71   54.04   0
   5   8   3  435.33   46.46   0
   5  11   4  -33.80   51.97   0
   6  17  10   52.12   70.13   0
   7  11   7  257.31   59.02   0
   7  13   8  133.12   64.90   0
   7  17  12   95.99   71.53   0
   8   8  10  -11.91   58.46   0
   8  12  10   34.65   60.94   0
   1  12   2  339.40   66.96   0
   2   6   0  249.52   37.04   0
   2  13   3  223.17   63.78   0
   3   0   3  126.63   43.54   0
   3   8   1  203.10   47.38   0
   3  15   5  174.09   67.65   0
   3  16   6  121.25   64.42   0
   5  13   5   26.11   63.38   0
   6  11   5   40.62   57.51   0
   7   6   7  161.33   49.23   0
   8   7  12   89.91   59.32   0
   8  14  11    1.08   70.63   0
   8  15  12   75.20   66.72   0
   3   1   2  253.19   34.72   0
   3  17   7  -38.52   58.39   0
   4  13   4   34.77   64.92   0
   6  13   6   14.33   68.90   0
   6  18  11   85.76   64.20   0
   7  18  13 -118.33   67.66   0
   8   7  11   13.03   58.92   0
   8  11   9   24.23   64.38   0
   8  13  10   89.90   65.11   0
   8  16  13   69.21   65.45   0
   2   3   0  429.16   33.40   0
   2  19   9   -5.22   61.82   0
   3  18   8  143.85   63.99   0
   4  19  10  -43.84   60.41   0
   6   7   4  332.59   48.59   0
   7   4  10  108.68   60.60   0
   7   8   6   22.18   51.07   0
   7   9   6   96.71   52.20   0
   7  16  10   16.40   74.55   0
   7  17  11  -98.89   76.76   0
   8  17  14  151.68   67.19   0
   2   7   0  458.47   43.17   0
   4   3   2   96.78   32.93   0
   5   4   3  309.04   39.88   0
   5  16   7   58.08   64.86   0
   7  10   6  212.37   52.76   0
   8   7  10   58.80   56.95   0
   8   8   9   38.39   56.07   0
   8  12   9   43.60   62.21   0
   8  14  10 -129.74   76.64   0
   8  15  11  116.04   73.22   0
   8  16  12   21.98   68.86   0
   9  12  14  -48.78   65.95   0
   9  12  15  -27.66   63.02   0
   9  12  16  -18.83   66.65   0
   9  13  14  145.31   70.55   0
   9  13  15   40.58   65.44   0
   9  13  16  -35.45   63.66   0
   9  14  16   23.04   64.25   0
  -1   9   0  166.16   57.78   0
   0   9   0   42.36   53.66   0
   1   1   0 1784.46   40.42   0
   3   9   1   39.69   47.36   0
   4  12   3  249.36   59.59   0
   5  10   3  447.97   51.89   0
   5  15   6   98.09   65.86   0
   6   6   4   50.72   42.91   0
   6  17   9   65.04   71.70   0
   7  11   6   53.17   60.35   0
   7  18  12   54.28   69.72   0
   9  11  14  -73.59   59.41   0
   9  11  15   46.38   62.34   0
   9  12  13    5.10   65.47   0
   9  14  15  -58.48   64.19   0
  -2   6  -1  146.71   64.93   0
   0  11   1   29.72   58.58   0
   1  15   4  -45.92   68.53   0
   1  16   5  -52.28   64.13   0
   1  17   6   19.50   62.60   0
   3  19   9   71.96   62.50   0
   4  10   2  321.17   48.09   0
   4  17   7  218.41   63.91   0
   5  14   5    7.49   69.05   0
   6  18  10  306.66   70.68   0
   7   5   7  194.34   48.43   0
   8  13   9  -39.34   66.52   0
   8  17  13 -101.26   66.98   0
   9  11  13   82.21   60.33   0
   9  13  13   17.23   66.35   0
   9  14  14  -46.26   72.00   0
   9  15  15  -80.46   62.61   0
  -1  11   1  160.98   65.63   0
   0   6  -1  385.64   44.11   0
   1  11   1  184.84   57.85   0
   4  18   8  -59.33   65.23   0
   7  16   9  274.23   80.64   0
   8   7   9   30.66   58.98   0
   8  11   8   97.35   62.33   0
   9  10  13  125.74   59.90   0
   9  10  14  -27.72   56.88   0
   9  11  12   44.71   59.36   0
   9  12  12   22.86   61.66   0
   0  14   3    5.04   67.74   0
   1   9   0  358.72   51.18   0
   1  14   3  240.39   67.37   0
   2  15   4   46.04   64.07   0
   2  17   6   39.90   60.85   0
   4   6   1  118.61   44.59   0
   5  11   3  200.49   56.96   0
   6   5   4  422.00   42.56   0
   6  19  11   11.38   69.55   0
   7  12   6   43.45   68.51   0
   7  17  10  115.46   72.37   0
   8   8   8  112.62   56.05   0
   8  12   8  160.26   63.09   0
   8  15  10  -42.74   76.77   0
   8  16  11   76.00   71.66   0
   3   2   1   14.31   33.38   0
   4  19   9  -11.32   60.92   0
   5   6   2  770.20   47.08   0
   5   7   2  202.37   46.89   0
   5  13   4   72.71   66.03   0
   6   2   8  399.72   57.03   0
   7   8   5  241.58   51.09   0
   7   9   5   67.05   50.94   0
   7  18  11   43.97   67.45   0
   8   6  10  100.95   60.19   0
   8  14   9   54.64   74.39   0
   8  17  12   39.25   66.34   0
   9  10  12  -33.71   57.90   0
   9  11  11  -16.76   59.84   0
   1   5  -1   75.66   42.27   0
   2  14   3  121.79   64.62   0
   3  17   6   -5.55   65.62   0
   4   8   1  464.73   49.19   0
   4  11   2   96.19   61.76   0
   7  10   5   36.47   53.47   0
   8   7   8    7.32   59.34   0
   8  13   8  -55.27   70.27   0
   9   9  13  -13.48   62.27   0
   9  10  11  209.75   58.95   0
   0  13   2  237.00   68.76   0
   2   2   0 5717.08   54.18   0
   2  11   1  181.96   56.28   0
   3   5   0  614.27   41.99   0
   3   6   0  512.05   43.43   0
   3  15   4   30.16   69.59   0
   3  18   7   56.45   63.76   0
   5   5   2  737.23   43.57   0
   5   9   2  396.13   52.67   0
   6   8   3  100.06   55.50   0
   6  17   8   -4.47   67.55   0
   7   5   6   19.43   47.82   0
   8  10   7   99.48   61.65   0
   8  11   7  137.22   68.07   0
   9   9  12   41.27   60.46   0
  -1   7  -1  670.11   56.67   0
   3   7   0   66.97   44.92   0
   4   4   1  207.53   40.61   0
   6   9   3  234.95   52.76   0
   6  15   6    1.23   69.96   0
   6  18   9   47.53   70.34   0
   8   6   9   40.48   58.30   0
   8  15   9  149.62   77.69   0
   8  16  10  195.86   73.55   0
   8  17  11  -31.08   75.15   0
   9   9  11  105.69   64.54   0
   9  11  10   68.32   61.77   0
   2  13   2  102.14   69.73   0
   3  14   3   89.20   70.05   0
   3  19   8  -81.54   61.09   0
   4   2   2   47.55   37.41   0
   4   9   1  333.56   48.73   0
   5  12   3  123.09   62.19   0
   6   3   5  197.35   45.62   0
   6   6   3  269.54   45.57   0
   7   4   7   45.59   50.84   0
   7  15   7   30.12   79.76   0
   7  16   8   79.11   76.48   0
   7  17   9   -0.22   72.16   0
   7  18  10  101.11   72.81   0
   8  12   7  179.68   66.92   0
   8  14   8   25.08   74.20   0
   9  10  10  -10.19   62.08   0
   1   3  -1 1975.60   43.76   0
   4  16   5   65.30   65.77   0
   4  17   6   34.45   61.63   0
   6   2   7   22.60   55.57   0
   6  14   5   94.15   67.20   0
   3   8   0  980.18   47.83   0
   4  18   7  189.95   64.57   0
   7  14   6   63.36   70.50   0
   8   6   8  129.46   60.84   0
   8   7   7  295.75   54.99   0
   8  13   7  -21.44   71.46   0
   9   8  12  -22.70   61.41   0
   9   9  10    0.91   57.62   0
   9  14  10  149.64   72.81   0
   9  15  11   34.42   70.62   0
   9  16  12  -96.92   71.83   0
   1  12   1    9.57   65.78   0
   4  19   8 -100.33   61.73   0
   6   5   3  192.24   46.92   0
   7   8   4   36.01   49.94   0
   8   9   6   84.49   58.33   0
   8  10   6   25.08   62.45   0
   8  16   9  -26.90   75.59   0
   8  17  10   98.97   75.20   0
   9   8  11  -40.85   60.90   0
   9  10   9   46.02   62.17   0
  -1  10   0   20.35   63.52   0
   0  12   1   72.07   67.51   0
   3  13   2  104.00   63.52   0
   5   1   5   51.81   49.43   0
   6  11   3   86.15   55.84   0
   6  17   7   27.01   74.17   0
   7   7   4  110.86   54.23   0
   7  10   4  100.15   55.49   0
   8  11   6  103.10   68.05   0
   8  15   8   64.29   78.53   0
   8  18  11  115.39   69.75   0
   9   9   9   98.84   64.62   0
   9  13   9   77.50   70.44   0
   2   5  -1  784.51   42.12   0
   2   6  -1   89.38   42.07   0
   2  10   0  255.43   55.87   0
   2  12   1  370.50   67.56   0
   2  16   4   22.54   65.81   0
   2  17   5   58.71   59.28   0
   3   9   0   38.56   50.06   0
   4   3   1   70.11   37.30   0
   5  11   2   60.09   56.33   0
   6  16   6   57.78   65.41   0
   7   4   6   43.79   51.64   0
   7  13   5  -58.12   70.75   0
   7  17   8  -83.30   68.55   0
   7  18   9  -44.55   76.90   0
   8  12   6 -159.45   72.81   0
   8  14   7   -8.11   78.19   0
   9   8  10   45.92   64.70   0
   9  15  10  -74.70   72.08   0
   9  16  11  143.23   71.56   0
  -2   7  -1  377.58   64.85   0
   0   8  -1 1090.07   54.59   0
   1  15   3   43.96   67.38   0
   2  15   3   49.32   71.06   0
   3  17   5  -37.61   61.99   0
   5   7   1  468.20   50.27   0
   6   2   6   88.59   50.94   0
   6  15   5   22.20   69.15   0
   7  15   6   12.48   79.64   0
   9  14   9  -54.86   76.05   0
  10  13  14 -169.91   67.65   0
  10  14  14 -170.87   67.30   0
   1   8  -1  -10.65   49.27   0
   2   4  -1 2411.82   41.96   0
   2   7  -1  807.84   46.35   0
   3  18   6    2.82   61.95   0
   5   8   1    7.97   50.14   0
   5  19   8   20.88   60.77   0
   6   7   2  470.19   49.78   0
   6   8   2  143.26   51.90   0
   7   6   4  214.86   45.79   0
   9   8   9  -13.89   58.95   0
   9  12   8  -83.87   65.26   0
  10  12  13  -19.13   68.62   0
  10  12  14  -29.29   64.79   0
  10  13  13  196.70   67.00   0
  10  14  13   20.27   67.86   0
  -1   8  -1   64.96   56.47   0
   3  15   3  -22.62   65.72   0
   3  19   7   32.18   61.83   0
   4   6   0  200.19   43.05   0
   4   7   0  409.88   48.26   0
   4  11   1  123.77   59.54   0
   5   9   1  449.03   52.32   0
   6   3   4  130.76   41.62   0
   6  14   4   69.64   71.84   0
   7  12   4   89.84   71.36   0
   8  13   6   -1.66   70.88   0
   8  16   8  -67.38   74.85   0
   8  17   9  -28.03   76.82   0
   8  18  10   66.37   70.86   0
   9   9   8   32.87   61.09   0
   9  13   8   -0.89   76.12   0
   9  16  10   80.04   70.41   0
   9  17  11  110.72   71.12   0
  10  12  12  -75.76   68.40   0
  10  13  12  150.00   71.83   0
   1  14   2   56.03   62.89   0
   2  14   2  237.10   64.73   0
   3  12   1   49.58   61.17   0
   4   5   0  588.09   44.73   0
   4  17   5   18.33   67.28   0
   4  18   6   55.20   64.98   0
   5   3   2   19.92   38.92   0
   5   5   1   55.61   44.36   0
   5  12   2  189.81   63.89   0
   6   6   2   42.08   47.04   0
   7   3   8   90.78   56.53   0
   7  14   5  137.88   69.92   0
   8   5   8  187.53   60.04   0
   8   9   5   21.51   58.58   0
   8  10   5  242.63   64.89   0
   8  15   7  129.80   77.60   0
   9   7  11   62.35   58.94   0
   9  15   9  107.46   70.13   0
  10  11  13  -40.15   62.05   0
  10  14  12   82.17   68.05   0
   4  16   4  -33.65   61.52   0
   6  10   2  271.71   56.07   0
   7   8   3  277.95   52.71   0
   7   9   3  -27.22   55.89   0
   8   8   5  -29.56   53.46   0
   8  11   5  -14.30   67.62   0
   9   7  10  112.71   60.57   0
   9   8   8  150.99   62.42   0
  10  11  12  156.69   62.09   0
  10  12  11  180.22   68.70   0
  10  13  11   16.39   69.38   0
   4   0   4 1195.45   57.36   0
   4  19   7    3.47   58.73   0
   5  10   1  494.87   53.30   0
   7   4   5  189.17   48.98   0
   7  10   3   53.74   56.07   0
   7  16   6  107.59   75.72   0
   7  17   7  -19.48   68.06   0
   7  18   8  130.03   72.27   0
   8   6   6   82.15   50.57   0
   8  12   5  -15.27   68.80   0
   8  14   6  -13.97   75.42   0
   9  11   7  -32.62   64.92   0
   9  12   7  -50.32   69.13   0
   9  14   8  110.60   77.64   0
  10  11  11  163.30   62.71   0
   1   9  -1  359.10   52.42   0
   2   3  -1   21.27   34.49   0
   2  11   0  207.36   57.39   0
   3   6  -1 2336.40   50.93   0
   4   4   0   87.14   40.72   0
   4  15   3   89.49   66.40   0
   6   5   2    7.53   44.77   0
   6  11   2  229.80   59.57   0
   9   7   9   20.77   61.87   0
   9  16   9   68.20   73.94   0
   9  17  10  146.57   68.98   0
  10  10  12  -22.09   58.66   0
   0   9  -1  259.30   52.82   0
   1  13   1   88.22   63.43   0
   3   5  -1  175.51   41.56   0
   3   7  -1  511.89   49.05   0
   5   4   1  452.22   42.88   0
   5  18   6  -12.94   64.56   0
   7  11   3  175.93   60.63   0
   8  16   7   -1.32   76.83   0
   8  17   8  216.23   70.98   0
   8  18   9   -0.39   64.91   0
   9  13   7 -205.56   74.29   0
   9  15   8  127.57   77.34   0
  10  10  11   20.57   60.51   0
  10  11  10   25.33   61.65   0
  10  12  10  259.06   64.44   0
   4   2   1  369.74   37.51   0
   5  11   1  109.08   62.41   0
   5  13   2 -136.85   68.65   0
   5  19   7  120.88   60.18   0
   7   6   3  194.30   45.59   0
   8  13   5  -82.81   70.89   0
   9   8   7  167.34   60.70   0
   3   8  -1   49.66   47.29   0
   3  13   1  138.41   67.55   0
   4  14   2  123.20   64.94   0
   8   9   4  -17.60   59.39   0
   8  10   4  189.63   64.85   0
   8  15   6  224.03   75.14   0
   9   7   8  132.26   56.05   0
   9  11   6   23.95   67.97   0
   9  14   7   26.21   80.46   0
  10  10  10  -75.77   60.66   0
   3   4  -1  263.43   38.84   0
   3  17   4   78.02   58.71   0
   3  18   5   52.38   61.31   0
   5   7   0  177.55   51.11   0
   6  14   3    1.79   68.33   0
   7  14   4  -33.66   68.31   0
   8   8   4  335.97   54.34   0
   8  11   4  188.14   68.64   0
   9  12   6  -49.61   68.69   0
   9  17   9  -22.92   72.52   0
  10  11   9   56.02   60.13   0
   3  16   3  -13.77   59.67   0
   5   6   0  108.46   46.79   0
   7   4   4  172.76   45.31   0
   7  17   6  -94.55   70.58   0
   8   5   6  374.16   50.62   0
  10   9  11   70.53   55.19   0
  -1   9  -1  234.17   58.12   0
   0   5  -2 1316.93   45.20   0
   1  12   0  177.98   64.64   0
   2  15   2   29.10   61.80   0
   4   3   0 2771.50   43.99   0
   4  17   4  119.54   60.41   0
   4  18   5  -51.30   59.49   0
   5   9   0  146.74   51.46   0
   5  12   1   91.15   65.09   0
   6   6   1  234.98   47.83   0
   7   8   2  255.73   51.32   0
   7   9   2  123.84   53.20   0
   7  16   5  115.90   68.09   0
   8  17   7   14.36   65.38   0
   8  18   8 -164.51   66.88   0
   9   7   7   29.24   57.22   0
   9  13   6  109.96   73.79   0
   9  15   7  123.61   71.53   0
  10   9  10  151.58   58.07   0
  10  10   9  -15.34   54.08   0
   0   6  -2 1141.69   48.49   0
   2  12   0   19.15   60.69   0
   3  15   2  -17.00   65.52   0
   4  16   3  -51.71   60.77   0
   5   3   1  130.00   40.29   0
   7   7   2   65.98   47.02   0
   7  13   3   45.69   65.52   0
   8  16   6  117.07   69.83   0
   9   6   9   53.46   56.25   0
  10  16  10  -81.59   64.22   0
   3  12   0  126.97   62.20   0
   4   6  -1   41.42   43.71   0
   4   7  -1  134.86   45.21   0
   5   5   0  427.29   45.10   0
   6  13   2   -5.59   64.61   0
   8  13   4  -74.23   67.40   0
   9  10   5   50.95   63.61   0
   9  14   6   -0.89   78.85   0
  10   9   9  -75.97   57.04   0
  10  10   8    7.52   58.92   0
  10  15   9   92.61   63.18   0
   0  12   0   56.56   62.10   0
   4   8  -1  585.77   46.17   0
   5  10   0  -31.10   53.72   0
   5  18   5   16.48   58.49   0
   7   3   5  166.93   45.53   0
   7   6   2   90.67   46.97   0
   7  11   2   55.82   62.04   0
   8   5   5  173.12   46.22   0
   8   9   3  211.80   57.86   0
   8  10   3   31.65   64.62   0
   8  15   5   76.49   71.48   0
   9   6   8   78.24   57.25   0
   9  11   5   62.72   61.95   0
   9  17   8   12.13   66.13   0
  10  14   8  -55.28   68.74   0
   1   4  -2  854.02   39.12   0
   2   2  -1 2502.17   39.27   0
   2   6  -2  458.29   40.45   0
   2  14   1   88.74   61.35   0
   3   3  -1 1683.47   39.54   0
   4   5  -1 1083.23   43.63   0
   4  15   2  -22.09   56.08   0
   5  17   4   74.77   60.44   0
   8   8   3  195.39   53.06   0
   9   7   6  178.40   57.12   0
   9  12   5   41.14   63.12   0
   9  16   7  116.85   69.82   0
  10  16   9  -71.37   67.55   0
  -1   5  -2  357.32   44.60   0
   0   7  -2  140.95   44.89   0
   1  14   1   95.45   59.31   0
   2   5  -2   79.41   37.03   0
   3  14   1   65.58   57.64   0
   4   9  -1  123.49   52.88   0
   5  16   3   47.93   57.30   0
   7  12   2  152.00   65.11   0
   7  14   3  -18.41   64.32   0
   9  13   5    5.72   75.14   0
   9  15   6  139.82   71.16   0
  10   8  10   57.13   55.98   0
  10   9   8    2.70   55.22   0
  11  13  12  -10.57   59.23   0
   5   4   0  438.87   40.69   0
   5  11   0  176.57   59.85   0
   6  12   1   40.36   64.79   0
   8   7   3   24.50   53.24   0
   8  17   6  107.43   64.71   0
   8  18   7   -3.61   61.82   0
   9   6   7   69.45   53.64   0
  10   8   9    4.93   57.20   0
  10  10   7   70.72   56.08   0
  10  13   7   86.74   64.72   0
  10  15   8   43.77   59.31   0
  11  12  12   29.62   60.28   0
  11  13  11  -28.13   60.18   0
  11  14  11  -18.39   60.04   0
  -1   6  -2   10.04   43.04   0
   1   8  -2  244.11   45.73   0
   4   4  -1  501.27   39.32   0
   5  15   2  -12.03   59.97   0
   6   8   0   75.69   46.83   0
   6  18   5   14.56   57.97   0
   7   5   2  458.92   42.60   0
   7  16   4    4.34   66.02   0
   8   4   6  190.91   48.80   0
   8  16   5   29.89   63.33   0
  11  12  11   57.26   58.27   0
  -1   4  -2  333.30   42.01   0
   1  11  -1   30.37   55.77   0
   2   4  -2   52.60   32.50   0
   2  11  -1  171.73   58.43   0
   3  17   3    1.83   56.01   0
   4   0   3  140.36   40.20   0
   6   4   1  195.47   40.05   0
   6   9   0  262.82   49.35   0
   6  17   4   -9.90   57.99   0
   7   8   1   60.76   49.50   0
   7   9   1   92.69   50.34   0
   9   7   5  186.80   52.81   0
   9  10   4   45.76   56.71   0
   9  11   4   24.43   63.21   0
   9  14   5  -80.69   70.02   0
   9  17   7   45.21   63.60   0
  10   9   7   13.34   56.82   0
  10  14   7 -132.56   57.42   0
  11  13  10   37.10   57.68   0
   0   8  -2  -13.31   42.22   0
   3   6  -2   56.19   39.89   0
   3   7  -2  601.42   43.01   0
   3  11  -1   13.31   57.02   0
   3  13   0   34.25   56.15   0
   4  18   4   20.57   53.77   0
   5   7  -1  126.01   44.80   0
   5   8  -1    5.08   47.44   0
   6   6   0  597.25   44.60   0
   7   7   1  542.82   46.85   0
   7  10   1  138.67   51.96   0
   7  13   2   -1.37   60.99   0
   7  15   3  -56.21   59.75   0
   8   5   4   90.81   43.76   0
   9   9   4    5.25   54.51   0
   9  12   4  110.05   66.12   0
   9  16   6   68.87   66.46   0
  10   8   8   55.30   54.21   0
  10  16   8    7.75   55.97   0
  11  11  11  -39.13   56.63   0
  11  12  10  179.23   60.71   0
  11  14  10  -49.26   57.41   0
   1   3  -2 1771.23   38.68   0
   1  13   0   15.41   54.31   0
   4   2   0  976.22   34.58   0
   5   6  -1  299.43   43.14   0
   6  10   0  216.28   49.38   0
   6  13   1  -13.03   61.34   0
   8   9   2  113.00   51.11   0
   8  10   2  104.46   59.76   0
  10  12   6  128.98   58.92   0
  10  15   7   43.94   59.66   0
  11  11  10   56.97   58.65   0
   4   1   1  671.21   35.17   0
   4  13   0  164.04   60.80   0
   4  16   2  -31.10   53.61   0
   5   9  -1  192.55   44.94   0
   7   6   1  395.44   42.60   0
   7  11   1  176.93   61.46   0
   8   8   2    6.44   47.02   0
   9  15   5  120.16   61.46   0
  10  13   6   12.42   60.76   0
  11  12   9  251.47   58.88   0
  11  13   9   69.84   58.78   0
   0  11  -1  280.47   53.87   0
   1   9  -2   95.00   47.94   0
   2   9  -2  646.14   46.05   0
   5   3   0    8.83   38.03   0
   5   5  -1   78.56   39.78   0
   5  17   3   50.36   55.81   0
   5  18   4   80.98   52.06   0
   6   5   0   67.88   41.69   0
   6  11   0   43.40   59.45   0
   8   4   5   10.11   43.64   0
   8  17   5   48.25   62.53   0
  10   8   7  -22.16   49.68   0
  10   9   6  -14.89   52.84   0
  10  14   6  192.48   60.19   0
  11  11   9    2.77   60.29   0
   2   3  -2  459.69   32.14   0
   2  15   1   44.05   51.39   0
   3   2  -1   20.85   29.88   0
   3   4  -2 2992.59   40.60   0
   4   3  -1   80.68   34.70   0
   5  10  -1  293.23   53.07   0
   7  12   1  -53.06   60.00   0
   8   7   2  250.83   47.22   0
   8  12   2  -75.31   63.30   0
   9   6   5   -4.74   50.93   0
  10   7   9   62.63   49.27   0
  10  16   7  -46.69   58.12   0
  11  10  10   81.71   52.21   0
   1   1  -1 1212.58   33.27   0
   2  12  -1   -6.86   53.70   0
   4   6  -2 1456.04   40.83   0
   4   7  -2   52.63   40.12   0
   4  15   1   23.68   53.14   0
   5  16   2   22.23   53.71   0
   8  16   4  -92.51   55.90   0
   9   5   7  246.12   49.97   0
   9   9   3  -45.39   54.69   0
   9  10   3  117.64   55.11   0
   9  11   3   55.01   58.28   0
   9  14   4   24.08   63.77   0
   9  17   6  -20.61   51.88   0
  10   7   8  -12.74   50.92   0
  10  11   5   14.87   54.84   0
  10  12   5  -26.26   59.73   0
  11  12   8   96.78   58.96   0
   4   8  -2  130.15   39.12   0
   6  12   0  151.76   58.61   0
   6  18   4  114.77   50.39   0
   7   5   1   30.49   38.51   0
   9  12   3  172.77   58.73   0
   9  16   5   16.19   56.26   0
  10   8   6   58.16   52.28   0
  10  15   6  -27.25   57.03   0
  11  10   9  -33.29   51.78   0
  11  11   8   46.48   52.94   0
   2  10  -2  137.31   46.41   0
   3  14   0   79.08   54.95   0
   4   5  -2 1023.46   37.59   0
   5   4  -1  139.30   36.46   0
   6   8  -1  214.35   45.97   0
   7   8   0  406.56   44.58   0
   7   9   0   63.48   44.47   0
   8   4   4  121.17   40.79   0
   8   6   2  266.45   42.40   0
   8  13   2   56.21   59.61   0
   8  15   3    4.61   57.56   0
   9   8   3   18.54   49.38   0
  10  13   5   61.53   60.69   0
   2  14   0   47.92   48.41   0
   3  10  -2  106.26   46.76   0
   4  12  -1  151.12   50.39   0
   5  15   1   60.13   48.40   0
   7   7   0   90.54   42.02   0
   7  10   0   33.48   50.51   0
   7  13   1  113.64   51.75   0
   8   9   1   67.97   49.46   0
   8  10   1  -23.11   55.73   0
   9   5   6    8.57   44.27   0
   9  15   4 -107.09   52.84   0
  10   7   7   55.80   47.66   0
  11  10   8   19.13   48.73   0
   4  14   0   62.70   47.05   0
   6  16   2   28.67   46.70   0
   8   8   1  107.10   43.89   0
   9   6   4   41.03   43.23   0
  10  14   5   68.74   51.38   0
  10  16   6  -63.71   54.97   0
  11  11   7   50.84   50.40   0
   3   3  -2  645.82   31.63   0
   6  10  -1  -38.56   48.03   0
   7   6   0   49.33   38.29   0
   7  11   0   40.71   54.56   0
   8   7   1   -6.61   44.61   0
   8  11   1  152.81   52.50   0
  10   8   5   51.80   46.73   0
  10  11   4  -53.23   55.15   0
   4   4  -2    7.27   32.64   0
   5   8  -2  178.25   36.91   0
   9   9   2  195.16   49.14   0
   9  14   3  -47.37   53.85   0
  10  12   4   86.14   52.06   0
  10  15   5  -17.24   55.72   0
   5   6  -2   60.39   35.51   0
   7  14   1   40.10   45.59   0
   8  12   1  136.94   49.59   0
   8  16   3   13.87   47.10   0
   9  11   2  117.75   48.77   0
  10  13   4   58.80   52.31   0
  -1  -7  -6  183.14   28.75   0
  -1  -5  -4    9.40   23.63   0
   1  -3  -1 2567.65   30.68   0
   3  -7  -4   62.01   34.83   0
   7 -11 -14  -15.30   61.59   0
   7  -6  -4  -60.50   47.50   0
   9  -9 -12   14.45   53.77   0
   9  -6  -6  -20.45   48.19   0
  10  -5  -6   23.19   44.90   0
  -2 -11 -16  237.92   49.27   0
  -2 -10 -12  292.31   40.85   0
   0  -2  -1  647.34   21.72   0
   1 -12 -13   13.76   52.16   0
   1  -9  -7  271.35   35.71   0
   3 -13 -17   35.41   57.33   0
   3 -11 -10   78.07   49.02   0
   4  -7  -4  130.19   36.02   0
   0 -11 -11  109.80   41.21   0
   0  -7  -5 1025.38   30.01   0
   2 -13 -19  -95.29   55.21   0
   2 -10  -8   45.71   40.19   0
   2  -7  -4  349.56   34.00   0
   3 -10  -8  233.44   42.46   0
   3  -8  -5  319.90   37.19   0
   3  -4  -1  632.61   29.04   0
   4 -10  -8   82.05   50.53   0
   6 -12 -15    5.15   53.89   0
   7  -7  -5  114.75   48.43   0
   8  -7  -6   66.83   49.28   0
   9  -8  -9   47.28   54.58   0
  -4  -5  -9  206.89   37.90   0
  -2 -11 -15    2.80   46.10   0
  -1 -12 -18   31.25   47.26   0
  -1 -12 -17    3.39   47.91   0
  -1  -8  -7  184.23   29.24   0
   0 -10  -9  142.26   33.29   0
   0  -5  -3  157.35   24.18   0
   2  -5  -2  240.70   28.76   0
   3 -13 -16   90.18   53.56   0
   4  -8  -5   17.49   38.90   0
   6 -10  -9   58.59   53.28   0
   9  -9 -11   69.05   51.48   0
   9  -7  -7    3.22   49.68   0
  10  -6  -7   -5.24   46.33   0
  -3  -9 -12   64.94   37.98   0
   0  -8  -6 1382.48   32.49   0
   1 -11 -10  129.56   38.31   0
   2 -13 -15  -13.04   53.73   0
   2  -8  -5  349.27   35.11   0
   3 -13 -15   75.46   59.14   0
   4 -12 -12    8.81   56.19   0
   5 -11 -10   -4.88   55.74   0
   6 -11 -11 -114.57   57.39   0
   6  -5  -2  106.28   39.66   0
   8  -9  -9   18.62   53.16   0
  -1 -12 -19   87.30   42.69   0
  -1 -12 -15   50.30   47.72   0
  -1  -4  -3 4468.95   34.79   0
   1 -10  -8  379.91   36.37   0
   3  -9  -6   78.58   38.62   0
   5  -3   0  290.59   36.18   0
   6  -6  -3  274.20   42.26   0
   6  -4  -1  172.20   39.53   0
   7  -8  -6  -26.46   50.36   0
   8 -10 -11 -117.59   53.95   0
   8  -8  -7   -7.27   48.08   0
   9  -5  -4   18.72   49.17   0
  -4  -6 -10  157.70   34.90   0
  -3 -10 -15  168.27   41.09   0
  -2 -11 -14   74.49   43.13   0
  -1  -9  -8   25.55   31.29   0
   2  -9  -6  106.46   35.52   0
   3 -11  -9   73.70   48.64   0
   4 -13 -15   24.22   54.99   0
   4  -9  -6  319.35   42.85   0
   8  -5  -3   36.05   47.81   0
  -2 -10 -11   14.92   36.35   0
   0 -13 -18  -24.88   48.64   0
   0 -13 -17   36.33   46.87   0
   0  -9  -7  231.17   32.36   0
   1  -7  -4 1547.25   33.00   0
   2 -11  -9  325.51   40.24   0
   2  -4  -1   26.22   23.31   0
   3 -12 -11   70.93   53.66   0
   3  -3   0   35.08   28.87   0
   4 -11  -9  180.67   52.95   0
   5 -13 -16  145.22   52.24   0
   8  -6  -4  -10.11   46.85   0
   9  -9 -10   -3.52   55.71   0
   9  -8  -8   92.41   52.10   0
   9  -6  -5   -9.95   47.89   0
  10  -7  -8   26.13   49.89   0
  -3 -10 -14  112.31   41.48   0
  -1 -12 -14  109.97   44.60   0
   0 -13 -19   14.38   46.39   0
   0  -4  -2   29.82   21.17   0
   1  -6  -3   25.03   25.05   0
   4 -12 -11  169.01   55.00   0
   5 -13 -15   71.41   57.51   0
   5  -9  -6   51.63   46.24   0
   6 -11 -10   40.23   53.49   0
  -3  -3  -5   66.70   30.37   0
   0 -12 -12   44.88   43.46   0
   1 -13 -14   53.80   46.42   0
   1 -12 -11   72.29   48.32   0
   3 -10  -7  121.17   40.71   0
   5 -11  -9   29.51   55.43   0
   7  -9  -7  119.02   51.59   0
   8 -10 -10   57.33   56.10   0
   8  -9  -8   -1.35   51.85   0
   8  -7  -5   65.33   47.07   0
  -3  -9 -11  184.10   35.02   0
  -1 -10  -9  228.61   35.31   0
   1  -5  -2  171.64   24.94   0
   2 -13 -13   75.63   51.17   0
   2 -10  -7  353.69   39.19   0
   3 -13 -13   60.05   55.44   0
   5 -12 -11    8.39   57.83   0
   5   0   2   79.39   35.47   0
   7  -6  -3  -26.36   47.95   0
   7  -5  -2   94.72   43.96   0
   9  -7  -6   10.33   47.07   0
  -4  -7 -11   36.02   34.06   0
  -3 -10 -13  187.51   39.92   0
   4 -13 -13  131.06   54.94   0
   5 -10  -7  -46.07   50.06   0
   7  -7  -4  113.87   50.67   0
   8  -2   0   17.43   44.53   0
  -3  -7  -8  203.11   30.90   0
  -2 -12 -16   34.97   42.73   0
   1 -13 -13  192.48   47.02   0
   3 -12 -10  146.76   51.93   0
   4 -12 -10   47.87   55.20   0
   4  -8  -4  606.88   39.43   0
   7  -4  -1  210.50   38.38   0
   8 -11 -12 -127.36   52.74   0
   8  -8  -6    9.18   47.87   0
   9  -9  -9  -69.32   53.64   0
  10  -8  -9   -7.67   48.46   0
  -3  -8  -9   43.25   32.48   0
  -2 -11 -12  109.88   39.72   0
  -1 -13 -17  -16.01   43.15   0
  -1  -8  -6  118.49   29.85   0
  -1  -7  -5  202.47   27.32   0
   0 -12 -11  223.18   44.03   0
   1 -14 -18   31.30   46.69   0
   1 -10  -7    8.99   34.75   0
   2 -13 -12  242.30   50.99   0
   2 -11  -8  137.04   39.27   0
   3 -13 -12   20.17   52.26   0
   3 -11  -8  210.67   40.31   0
   3  -6  -2  794.33   30.47   0
   4 -11  -8   39.85   50.55   0
   7  -8  -5  216.18   49.78   0
  -2 -12 -15    7.39   41.08   0
  -1 -13 -19   15.50   39.46   0
  -1 -11 -10  491.14   37.85   0
   0 -11  -9  420.57   34.41   0
   1 -14 -19    1.27   43.64   0
   1  -2   0  424.72   18.97   0
   2 -14 -15   63.26   49.19   0
   2  -8  -4  229.78   33.41   0
   2  -7  -3  516.60   31.38   0
   2  -3   0 4239.38   33.83   0
   3 -14 -15   22.32   48.57   0
   3  -9  -5  516.19   37.68   0
   4 -14 -16  -72.06   46.63   0
   6 -13 -14   71.75   50.90   0
   6 -12 -11   58.68   53.15   0
   6   0   2  114.54   41.44   0
   8 -10  -9  120.94   54.74   0
  -4  -8 -12   54.95   35.26   0
  -3 -10 -12   33.88   37.45   0
  -1  -9  -7  631.83   29.86   0
  -1  -6  -4 1417.36   27.33   0
   0  -7  -4 1529.17   28.89   0
   1 -13 -12   18.68   47.91   0
   2  -9  -5   58.61   35.57   0
   5 -12 -10   78.84   55.77   0
   5 -11  -8   95.49   51.07   0
   8 -11 -11   71.82   51.00   0
  -3  -5  -6    0.92   27.47   0
   0 -14 -18   -6.92   46.18   0
   0  -9  -6  331.29   31.39   0
   1  -4  -1  579.17   22.79   0
   2  -6  -2    1.16   28.94   0
   3 -14 -14   63.47   55.24   0
   3 -10  -6  255.23   39.12   0
   4 -10  -6  -31.71   47.13   0
   5 -13 -12  134.53   56.87   0
   6  -7  -3    2.10   42.32   0
   6  -6  -2   51.06   40.84   0
   7  -9  -6   25.58   50.88   0
  -3  -9 -10  -24.18   31.61   0
  -1 -10  -8  200.99   31.85   0
   0 -14 -19   71.60   41.41   0
   0 -14 -17  105.61   45.22   0
   0  -6  -3  184.43   25.02   0
   2 -14 -14  142.90   50.61   0
   2 -10  -6  -14.46   39.37   0
   3 -12  -9   62.39   50.67   0
   6 -13 -13   87.04   53.08   0
   6  -8  -4  317.18   46.51   0
   8  -6  -3    5.51   48.97   0
   9 -10 -10  -64.00   50.37   0
  -3 -11 -14   20.91   38.13   0
  -2 -11 -11  324.52   36.80   0
   0 -14 -16   -7.71   43.78   0
   0 -12 -10  135.63   41.52   0
   0 -10  -7  444.18   32.79   0
   1 -14 -14  -23.31   46.36   0
   2 -12  -9   -7.40   44.55   0
   4 -14 -14   57.26   53.27   0
   4 -13 -11  -56.29   58.36   0
   5 -10  -6  108.03   51.34   0
   5  -4   0  309.99   36.02   0
   6 -12 -10   76.12   55.66   0
   6  -5  -1  207.90   38.59   0
   8  -7  -4   30.49   51.20   0
   8  -5  -2   87.34   45.76   0
   9  -9  -8    3.53   50.80   0
  -2 -12 -13   98.63   42.30   0
   0 -13 -12  141.96   43.64   0
   1  -8  -4  116.45   30.70   0
   3 -14 -13   20.61   53.40   0
   8 -11 -10   37.86   53.89   0
  -4  -7 -10  358.40   32.44   0
  -1  -5  -3 2591.96   27.65   0
   1 -12  -9  169.54   39.06   0
   1  -7  -3  642.10   28.99   0
   3  -4   0  272.50   29.19   0
   4 -11  -7  -18.81   49.76   0
   5 -14 -14   12.23   49.07   0
   5 -13 -11  145.69   55.01   0
   5 -12  -9  -20.73   52.77   0
   6 -13 -12  -23.90   51.93   0
   7 -10  -7   77.75   50.65   0
   8 -10  -8 -131.71   52.37   0
   8  -8  -5  -83.81   48.66   0
  -4  -9 -13  116.50   35.95   0
  -4  -6  -9  245.08   29.73   0
  -3 -11 -13   97.46   37.16   0
  -3 -10 -11  179.54   34.48   0
  -2 -13 -17   40.40   36.82   0
  -2 -13 -16  -17.45   39.03   0
  -1 -14 -18   52.42   41.84   0
  -1 -11  -9    5.47   34.01   0
   0 -11  -8   56.63   32.58   0
   6  -4   0  509.18   38.97   0
   7  -7  -3  124.66   47.37   0
   7  -6  -2  181.18   46.43   0
   9  -8  -6   11.61   45.44   0
  -4  -8 -11  349.75   32.82   0
  -1 -14 -19   11.68   38.91   0
  -1 -14 -17   38.75   39.59   0
   0  -5  -2   91.88   21.66   0
   2 -15 -16  -23.36   46.51   0
   2 -13 -10   67.58   47.36   0
   3 -15 -16   32.19   50.36   0
   4 -13 -10   81.58   58.56   0
   7  -8  -4   44.65   49.75   0
   7  -2   1   16.86   43.03   0
   9 -10  -9   24.27   49.68   0
  -2 -13 -15   69.72   40.35   0
  -2 -12 -12   59.73   37.72   0
  -1 -14 -16   83.34   39.40   0
   0 -13 -11   16.74   44.12   0
   1 -11  -7   95.05   36.21   0
   3  -9  -4  319.82   34.42   0
   3  -8  -3  -23.57   32.54   0
   4 -12  -8  115.81   51.82   0
   7  -5  -1  160.82   44.87   0
  -3 -12 -16   91.96   35.75   0
  -3  -8  -8  464.25   29.70   0
  -1 -14 -15  120.23   41.76   0
   2 -15 -15   -8.22   46.58   0
   2 -12  -8  131.54   41.67   0
   3 -15 -15  -15.33   46.51   0
   3  -7  -2    2.73   31.28   0
   4 -14 -12  137.63   52.20   0
   7 -11  -8  131.90   52.85   0
   7  -9  -5  139.39   50.92   0
   8 -11  -9   65.37   52.95   0
  -3 -12 -15   -9.11   36.47   0
  -3 -11 -12   94.34   37.28   0
  -3  -9  -9  122.11   28.80   0
  -3  -7  -7   21.69   26.03   0
  -2 -13 -14   32.15   40.23   0
  -1  -9  -6  172.65   28.38   0
  -1  -8  -5  339.91   27.33   0
   0 -15 -17   21.73   43.61   0
   1 -14 -12  106.55   44.87   0
   2  -9  -4   41.08   34.16   0
   3 -10  -5    1.47   37.76   0
   5 -13 -10   -5.36   52.78   0
   5 -12  -8   55.82   53.50   0
  -4  -9 -12   70.98   32.52   0
  -1 -10  -7  -15.39   29.36   0
   0 -10  -6  103.01   31.01   0
   0  -9  -5  678.01   30.00   0
   0  -8  -4 1371.70   29.78   0
   1 -12  -8  124.10   36.36   0
   2 -15 -14   65.95   44.79   0
   2 -10  -5  334.56   36.04   0
   3 -15 -14    3.07   47.88   0
   4  -3   1   26.46   28.64   0
   5 -14 -12   81.29   50.24   0
   5  -6  -1  146.02   38.13   0
   5  -1   2  430.30   36.89   0
   8 -10  -7    5.54   52.24   0
  -3 -12 -14   78.80   38.17   0
  -3 -10 -10    8.12   30.93   0
  -2  -8  -6  414.67   26.97   0
  -1 -14 -14   49.66   40.94   0
  -1  -7  -4  716.00   25.86   0
   0 -15 -16   55.45   42.53   0
   2 -14 -11  -52.88   51.14   0
   3 -14 -11   53.52   52.54   0
   3 -13  -9  140.15   49.65   0
   3 -11  -6   87.90   42.23   0
   3  -6  -1   25.45   31.06   0
   4 -15 -14  119.75   49.80   0
   4 -11  -6  -14.49   48.71   0
   6  -8  -3   -5.19   46.30   0
   6  -7  -2  203.53   46.76   0
   7 -10  -6  -19.61   48.13   0
   9  -7  -4  -17.60   49.49   0
  -3  -6  -6  261.53   25.14   0
  -2 -13 -13  188.30   42.08   0
  -2  -3  -3  128.52   22.13   0
  -1 -11  -8  260.29   33.56   0
   0 -14 -12  124.93   44.31   0
   0 -13 -10  243.39   43.73   0
   0 -11  -7  162.27   32.86   0
   0  -7  -3   80.21   25.23   0
   1  -5  -1    2.71   23.11   0
   4 -14 -11   96.69   53.90   0
   4 -13  -9   58.12   53.26   0
   6  -9  -4   44.07   45.89   0
   7 -12  -9  -36.86   53.07   0
   8  -7  -3  108.86   50.12   0
   9 -10  -8  -82.96   50.59   0
  -3  -4  -5   57.51   24.38   0
  -2 -14 -17   40.26   35.98   0
  -2  -7  -5  615.99   24.54   0
   1 -14 -11   75.91   46.14   0
   2 -15 -13   36.71   49.22   0
   3 -15 -13  -23.29   48.64   0
   3 -12  -7   98.69   51.20   0
   6  -1   2   10.39   39.65   0
   8  -8  -4  100.73   50.46   0
   8  -6  -2   64.46   48.38   0
   9  -8  -5   64.17   46.73   0
  -4 -10 -13   20.39   33.66   0
  -4  -8 -10   27.21   29.42   0
  -4  -7  -9  479.03   30.03   0
  -3 -12 -13   71.23   36.38   0
  -3 -11 -11   42.26   36.27   0
  -1 -15 -18   36.96   39.32   0
  -1 -15 -17   76.36   40.86   0
   1 -13  -9  121.68   45.48   0
   1 -10  -5    6.73   32.21   0
   1  -9  -4  557.07   31.40   0
   4 -12  -7   20.96   48.95   0
   5 -14 -11   14.44   50.08   0
   5 -13  -9  106.94   51.70   0
   5  -5   0 1041.63   37.50   0
   6 -14 -12    6.42   51.07   0
   7 -11  -7   45.56   51.35   0
   8 -11  -8  -11.30   52.66   0
  -4  -9 -11  202.10   31.28   0
  -1 -12  -9  144.98   34.79   0
  -1  -4  -2  282.54   21.17   0
   0 -12  -8  384.81   34.23   0
   1 -15 -13   19.49   44.49   0
   1 -11  -6  165.98   35.14   0
   2 -16 -16   12.74   45.51   0
   2 -12  -7   69.93   39.80   0
   2  -6  -1  841.74   30.48   0
  -3 -13 -16   60.01   35.54   0
  -2 -14 -15   19.12   38.16   0
  -2 -13 -12  231.32   38.28   0
  -1 -15 -16   -4.30   40.51   0
  -1  -6  -3  388.58   23.11   0
   0  -4  -1   29.87   19.57   0
   3 -14 -10   20.66   51.53   0
   4 -14 -10  118.09   57.10   0
   7  -8  -3   67.82   47.93   0
   9  -9  -6   68.56   46.45   0
  -3 -13 -15   98.18   36.28   0
  -1 -15 -15   -0.27   38.73   0
   0 -14 -11   65.45   42.66   0
   0  -6  -2  395.07   23.54   0
   1  -7  -2   34.75   26.70   0
   2 -16 -15  -15.77   49.91   0
   2 -15 -12  -40.69   49.66   0
   6  -5   0   53.89   40.18   0
   7  -9  -4   49.13   49.75   0
   7  -7  -2   -7.59   45.94   0
  -4 -10 -12  357.34   34.24   0
  -3 -12 -12  270.41   37.17   0
  -3 -10  -9  325.32   30.69   0
  -2 -14 -14  171.11   37.02   0
  -1 -13 -10  -74.83   41.20   0
  -1 -10  -6  558.24   30.73   0
   0 -16 -17   28.41   39.73   0
   0 -13  -9  -24.28   41.19   0
   1 -15 -12  210.44   49.41   0
   1 -14 -10   54.67   43.46   0
   2 -13  -8  189.78   47.80   0
   3  -9  -3   18.57   34.44   0
   4 -15 -12   12.84   50.63   0
   4 -13  -8  137.38   51.41   0
   7 -12  -8   -7.46   55.25   0
   8 -10  -6   64.25   48.45   0
  -1 -11  -7  165.46   31.89   0
   3 -16 -14   14.18   47.21   0
   3 -11  -5  131.30   43.27   0
   3  -8  -2   -4.24   32.17   0
   4 -11  -5   22.78   49.82   0
   5 -14 -10   83.33   50.26   0
   7 -10  -5   62.04   46.83   0
   7  -3   1  234.55   44.88   0
   8 -12  -9  -89.39   49.81   0
   9 -10  -7   35.69   50.95   0
  -3 -13 -14   61.20   37.79   0
  -3 -11 -10  136.26   32.37   0
  -2 -10  -7  166.74   29.35   0
  -1 -15 -14  108.45   40.88   0
   0 -16 -16   -6.13   41.07   0
   0 -11  -6   97.23   32.74   0
   0 -10  -5  222.72   30.53   0
   0  -9  -4  216.27   28.83   0
   1 -13  -8   24.79   45.10   0
   2 -16 -14  -70.04   44.54   0
   2 -11  -5  106.66   36.39   0
   2  -9  -3  464.80   33.94   0
   5 -15 -12   27.34   52.06   0
   5 -13  -8   17.89   49.31   0
  -2 -14 -13  -35.64   40.05   0
  -2  -9  -6  277.57   26.18   0
  -1  -8  -4  111.53   25.66   0
   1 -16 -14  -19.60   47.12   0
   2 -15 -11   29.77   51.46   0
   2 -14  -9  255.99   49.92   0
   3 -14  -9  -11.34   52.20   0
   4 -12  -6  193.75   51.11   0
   5  -7  -1  129.49   39.76   0
  -4 -11 -13   37.85   33.90   0
  -4  -9 -10  266.20   28.41   0
  -4  -8  -9   23.23   26.57   0
  -2  -4  -3 1014.59   22.24   0
  -1 -16 -18   47.16   37.95   0
   0 -15 -12   52.98   40.97   0
   0 -14 -10   29.57   41.38   0
   0 -12  -7  161.20   33.26   0
   2  -8  -2  123.41   31.09   0
   2  -5   0   48.87   25.55   0
   3 -16 -13    9.62   52.33   0
   3  -7  -1  900.04   30.87   0
   4 -14  -9   43.29   55.29   0
   6  -9  -3   34.47   49.90   0
   7 -11  -6   83.54   50.07   0
  -4 -10 -11   68.10   31.63   0
  -3 -13 -13  233.79   35.78   0
  -3 -12 -11  139.86   38.42   0
   1 -15 -11   55.48   47.21   0
   1 -14  -9   58.58   46.44   0
   1  -4   0  267.07   20.22   0
   3 -13  -7   76.49   50.26   0
   6 -10  -4   -1.18   49.83   0
   6  -8  -2  -30.51   48.25   0
   7 -13  -9   74.86   48.44   0
  -3 -14 -16    1.25   34.49   0
  -2 -15 -15   33.15   39.17   0
  -1 -16 -16   94.17   41.24   0
  -1  -5  -2 2224.85   24.41   0
   0 -13  -8  130.68   40.91   0
   1  -9  -3    5.10   32.89   0
   2 -13  -7  133.52   50.30   0
   4 -13  -7   99.63   52.82   0
   5 -15 -11  -22.52   54.53   0
   5 -14  -9  109.80   54.55   0
   5  -2   2  380.22   35.66   0
   6 -11  -5  122.30   51.44   0
   6  -7  -1   69.75   48.23   0
   8  -8  -3  -14.79   48.35   0
  -4 -11 -12  172.93   34.49   0
  -1  -7  -3 2209.74   28.08   0
   1 -12  -6  -42.55   36.05   0
   2  -7  -1   23.98   31.34   0
   2  -3   1  108.13   23.65   0
   3 -15 -10   23.87   54.56   0
   5  -6   0   66.52   37.62   0
   7 -12  -7  152.82   54.68   0
   8 -12  -8   35.97   51.37   0
   8  -9  -4   66.07   46.74   0
   8  -7  -2   45.13   49.85   0
  -4 -12 -14   18.82   33.79   0
  -4  -7  -8   39.77   26.30   0
  -3 -14 -15   76.64   35.00   0
  -3 -13 -12   31.57   38.21   0
  -3 -11  -9    6.52   33.03   0
  -1 -16 -15    4.12   40.58   0
   2 -15 -10 -120.17   50.62   0
   3 -16 -12   88.22   52.13   0
   4 -15 -10   -1.03   50.67   0
   8 -10  -5   38.61   48.69   0
  -2 -15 -14  -26.54   36.59   0
  -2  -7  -4  226.87   23.99   0
  -1 -14 -10  220.96   41.61   0
  -1 -11  -6   12.84   31.61   0
   0 -14  -9   90.16   42.19   0
   1 -15 -10  123.43   50.40   0
   1 -13  -7   90.37   42.47   0
   1  -8  -2  315.62   29.21   0
   2 -14  -8   47.29   49.93   0
   3 -14  -8  129.84   52.55   0
   3  -6   0  406.75   30.84   0
   4 -16 -12   82.33   48.61   0
   6 -12  -6  -39.55   52.52   0
   6  -2   2   14.33   41.42   0
  -3 -14 -14   -6.25   38.52   0
  -3 -12 -10   51.61   35.51   0
  -1 -10  -5   11.50   29.60   0
   1 -16 -12  -40.62   44.65   0
   3 -11  -4  -54.66   43.32   0
   3 -10  -3    1.80   39.99   0
   4 -14  -8   32.41   52.80   0
   4 -11  -4  164.09   50.13   0
   7 -10  -4  132.72   49.83   0
   7  -9  -3   49.03   47.52   0
   7  -8  -2   46.29   48.03   0
  -4 -12 -13  151.36   34.87   0
  -4 -10 -10  412.63   29.34   0
  -4  -9  -9   96.55   27.78   0
  -2 -11  -7  274.23   32.36   0
  -2 -10  -6   20.09   29.18   0
  -2  -5  -3 1251.17   24.22   0
   0 -17 -16   23.43   37.11   0
   0 -12  -6  250.77   33.77   0
   0 -11  -5   43.87   32.40   0
   0 -10  -4  190.62   30.44   0
   1 -14  -8  184.62   47.10   0
   2 -11  -4  629.83   37.08   0
   3 -12  -5   65.61   48.14   0
   3  -9  -2  253.55   37.95   0
   4 -12  -5   -2.26   50.82   0
   5 -15 -10  163.70   53.73   0
   6  -6   0   52.76   41.78   0
   7 -13  -8   55.56   50.44   0
   8 -11  -6   33.41   52.01   0
  -2 -16 -17   46.74   36.38   0
  -2 -15 -13   71.03   38.43   0
  -1 -13  -8   37.98   37.51   0
   1 -17 -14  -22.26   46.32   0
   2 -16 -11  -39.62   50.39   0
   2 -12  -5  147.35   41.77   0
   3 -16 -11  -22.32   53.65   0
   5  -9  -2  109.28   45.56   0
   7 -11  -5  123.24   49.96   0
   7  -7  -1  269.07   50.08   0
  -4  -5  -7  -11.97   28.07   0
  -3 -14 -13   97.47   37.54   0
  -3 -13 -11  348.72   38.65   0
  -2 -16 -16    2.89   39.54   0
   0 -15 -10   16.24   43.00   0
   0  -9  -3  132.17   28.80   0
   2 -15  -9  126.49   50.54   0
   2 -13  -6   76.11   50.09   0
   2  -9  -2   -5.57   34.45   0
   2  -6   0  680.98   29.78   0
   3 -15  -9   16.24   52.15   0
   3 -13  -6  158.43   47.49   0
   3  -8  -1  288.81   35.17   0
   4 -13  -6   51.18   52.23   0
  -4  -8  -8  247.50   25.94   0
  -3 -15 -16   41.29   33.22   0
  -1 -14  -9   -6.38   42.56   0
  -1  -6  -2 1309.82   24.94   0
   1 -16 -11   18.52   47.95   0
   1  -7  -1   47.66   26.94   0
   2 -17 -13   48.15   45.73   0
   4 -16 -11  -40.93   46.19   0
   4 -15  -9   47.19   48.64   0
   4  -5   1  691.23   33.52   0
   5  -8  -1  273.83   43.58   0
   5  -5   1   47.90   37.03   0
   7 -12  -6   90.13   53.21   0
   8 -12  -7   22.01   51.35   0
  -4 -13 -14   -6.96   35.59   0
  -4 -12 -12   48.08   35.02   0
  -3 -15 -15   45.02   36.48   0
  -2 -16 -15   37.09   37.69   0
  -2 -15 -12   32.01   40.19   0
  -1 -17 -16   22.55   37.99   0
  -1  -8  -3  425.89   26.60   0
   0 -14  -8   74.82   43.09   0
   1 -17 -13   89.25   46.19   0
   1 -15  -9   66.77   46.95   0
   1 -12  -5  251.05   35.91   0
   1 -11  -4   83.93   35.38   0
   1 -10  -3  738.14   35.44   0
   1  -1   1   14.95   18.42   0
   3 -14  -7    1.00   55.36   0
   6 -11  -4  188.69   50.62   0
   6 -10  -3   68.08   51.34   0
   6  -9  -2   23.64   51.48   0
  -4  -6  -7  230.76   26.36   0
  -3 -14 -12  -24.77   39.36   0
  -2  -8  -4  326.55   27.33   0
   0  -6  -1   27.05   23.43   0
   1 -13  -6  264.44   42.34   0
   2 -14  -7  103.40   48.33   0
   2  -8  -1  123.77   32.99   0
   4 -14  -7   28.95   54.26   0
  -2 -16 -14   16.79   38.32   0
  -1 -17 -15  -15.69   40.41   0
  -1  -2  -1   21.96   16.82   0
   0 -16 -11  -77.51   43.63   0
   0  -8  -2  631.36   28.99   0
   0  -3   0 1772.26   24.05   0
   3 -16 -10   14.48   53.26   0
   5  -7   0   18.25   40.92   0
   6 -12  -5   -1.14   51.91   0
   6  -8  -1   67.04   49.14   0
   7  -6   0  163.58   48.79   0
   8  -9  -3   83.53   50.40   0
  -4 -13 -13  -26.12   34.43   0
  -4 -11 -10   -6.96   31.15   0
  -4 -10  -9  181.78   29.46   0
  -3 -13 -10   14.82   36.61   0
  -1 -15 -10  153.65   41.43   0
  -1 -12  -6  148.51   32.40   0
  -1 -11  -5  375.25   31.67   0
  -1  -3  -1   73.90   19.11   0
   0 -15  -9   50.62   42.80   0
   1 -14  -7  -74.34   47.04   0
   2 -17 -12   64.71   46.31   0
   3 -17 -12   18.95   48.70   0
   3 -15  -8   18.20   56.54   0
   3  -7   0   -8.96   32.77   0
   7 -13  -7   20.16   52.87   0
   8 -10  -4   50.06   47.31   0
   8  -8  -2  225.71   49.78   0
  -4 -12 -11  243.96   35.21   0
  -4  -9  -8  418.06   29.51   0
  -4  -7  -7  354.29   26.33   0
  -2 -12  -7   64.37   34.06   0
  -2 -11  -6  429.45   32.91   0
  -1 -17 -14  -65.63   41.23   0
  -1 -13  -7   67.31   38.28   0
  -1 -10  -4   90.00   33.01   0
   0 -12  -5  -41.49   36.93   0
   1 -17 -12  -50.06   42.44   0
   1 -16 -10   43.91   48.75   0
   3 -12  -4  222.86   50.53   0
   3 -11  -3  145.18   46.54   0
   4 -15  -8   48.36   52.56   0
   6 -13  -6  -10.01   55.34   0
   8 -11  -5   10.36   52.82   0
  -2 -16 -13   50.79   38.12   0
  -2 -13  -8  122.81   37.07   0
  -2 -10  -5  539.48   30.65   0
  -1 -14  -8  176.81   43.70   0
   0 -13  -6  -39.54   37.81   0
   0 -11  -4  379.45   33.76   0
   2 -12  -4   98.08   46.98   0
   3 -13  -5  -64.98   51.70   0
   3 -10  -2  135.58   44.25   0
   7 -10  -3  -21.79   50.49   0
  -3 -15 -13   52.47   36.38   0
  -3 -14 -11   59.43   39.29   0
  -2 -17 -16    2.90   38.54   0
  -1  -7  -2   66.71   24.77   0
   0 -10  -3  639.71   34.22   0
   1 -15  -8  160.33   47.69   0
   1  -6   0  123.39   27.89   0
   2 -13  -5  106.61   48.22   0
   2 -11  -3  -13.47   37.24   0
   4 -13  -5   -1.30   52.87   0
   6  -7   0  185.68   47.51   0
   7 -11  -4   47.99   48.40   0
   7  -9  -2  132.41   51.02   0
  -4 -13 -12  137.70   35.83   0
  -3 -16 -16   35.84   34.28   0
  -1  -9  -3  183.46   30.95   0
  -1  -4  -1 3755.51   28.68   0
   0 -17 -12  -15.55   44.77   0
   0 -16 -10   71.01   45.96   0
   0 -14  -7  172.02   44.43   0
   1  -8  -1   54.63   30.25   0
   2 -16  -9  -26.45   52.74   0
   2 -10  -2  103.78   37.96   0
   2  -7   0  679.67   32.92   0
   3 -17 -11  -34.34   50.22   0
   3 -16  -9    1.47   52.46   0
   3 -14  -6  154.17   55.23   0
   3  -9  -1   24.85   40.76   0
   5 -10  -2   65.24   47.06   0
   6 -14  -7   69.31   56.62   0
   8 -12  -6  126.82   50.85   0
  -3 -16 -15  -86.82   36.18   0
  -3  -4  -4    0.17   22.61   0
  -2 -17 -15  -43.21   39.07   0
  -2  -9  -4  213.29   30.21   0
  -2  -7  -3  100.18   23.89   0
  -1 -15  -9   89.95   42.48   0
   0  -7  -1  122.79   26.63   0
   1 -17 -11  -16.05   44.31   0
   1 -12  -4   91.88   38.71   0
   2  -5   1  416.25   26.99   0
   5  -9  -1   27.90   47.42   0
   7 -12  -5   61.77   52.94   0
   7  -8  -1  132.88   50.61   0
  -4 -12 -10  163.80   35.18   0
  -4 -11  -9  131.78   31.17   0
  -4  -8  -7   40.17   26.02   0
  -3 -15 -12   46.76   37.03   0
  -2 -16 -12   54.02   39.10   0
   0 -15  -8   47.34   44.00   0
   1 -16  -9  152.71   50.85   0
   1 -13  -5  -78.25   44.77   0
   1 -11  -3  608.51   36.46   0
   4 -16  -9   -9.82   53.15   0
   5  -6   1  113.91   40.02   0
  -4 -14 -13    3.17   34.87   0
  -4 -10  -8  152.94   28.26   0
  -3 -16 -14   12.69   37.28   0
  -3 -14 -10   21.68   40.75   0
  -2 -17 -14   73.67   39.51   0
   0  -9  -2   83.82   29.88   0
   2 -15  -7   54.53   53.05   0
   2  -9  -1  349.83   36.04   0
   3 -15  -7   59.98   56.39   0
   6 -11  -3  -19.96   48.15   0
   7 -13  -6   60.79   53.73   0
  -4 -13 -11   -5.40   34.53   0
  -2 -13  -7  242.96   39.36   0
  -2 -12  -6  515.98   38.97   0
  -1 -16 -10   74.76   42.79   0
  -1 -13  -6   57.44   38.62   0
  -1 -12  -5  175.70   33.22   0
  -1  -5  -1  506.73   22.51   0
   0 -17 -11   58.19   42.38   0
   1 -10  -2  130.14   34.00   0
   4  -4   2   21.25   34.57   0
  -2 -11  -5  246.82   33.12   0
  -1 -11  -4  -23.64   32.15   0
  -1  -8  -2   99.20   28.07   0
   0 -16  -9   55.45   48.46   0
   0  -5   0   71.33   22.86   0
   1 -15  -7   43.03   49.17   0
   1  -4   1 1525.19   25.67   0
   2 -17 -10   80.54   50.49   0
   3 -17 -10   17.56   46.35   0
   5  -8   0  282.87   47.27   0
   6 -13  -5   52.42   57.47   0
   6  -6   1  110.09   47.79   0
   7  -7   0   49.46   49.91   0
  -4 -14 -12  141.77   38.41   0
  -4  -9  -7  231.02   28.48   0
  -3 -16 -13   32.19   40.29   0
  -3 -15 -11  -59.66   41.19   0
  -2 -17 -13    7.67   41.99   0
  -2 -14  -8   14.33   41.35   0
   0 -14  -6  138.46   48.08   0
   0 -13  -5  174.51   37.87   0
   0 -12  -4  168.35   35.79   0
   1 -18 -12   14.07   49.66   0
   1 -17 -10   50.16   47.05   0
   1  -7   0   92.08   30.35   0
   2 -16  -8   87.74   51.71   0
   3 -16  -8   11.22   49.30   0
   3 -13  -4  157.18   52.76   0
   3 -12  -3  -66.16   51.38   0
  -5 -10 -11  272.80   33.54   0
  -4 -15 -14  -11.22   35.69   0
  -3 -17 -16   91.47   36.92   0
  -1 -15  -8   24.25   43.30   0
   0 -11  -3   29.38   34.73   0
   1 -16  -8   56.13   53.92   0
   2 -13  -4  -77.69   51.88   0
   3 -14  -5  177.91   55.81   0
   3 -11  -2   -1.71   49.75   0
  -4  -6  -6  202.56   26.22   0
  -2 -10  -4   -9.70   29.22   0
  -2  -5  -2  461.55   22.41   0
   0 -15  -7   86.56   44.45   0
   0  -8  -1  240.80   29.12   0
   1  -9  -1   63.08   33.59   0
   2 -14  -5   99.62   48.31   0
   2  -8   0   88.69   32.22   0
   2  -6   1  110.76   30.12   0
   6 -14  -6   52.85   52.96   0
   6  -8   0  133.39   50.64   0
  -5  -9 -10   94.71   32.52   0
  -4 -13 -10  195.82   36.11   0
  -4 -11  -8   12.61   29.83   0
  -4  -7  -6  135.18   26.88   0
  -3 -17 -15   -5.93   37.11   0
  -2 -18 -15  -37.68   39.97   0
  -1 -16  -9   43.19   46.28   0
   0 -18 -12  -14.01   44.56   0
   2 -11  -2  187.50   41.59   0
   2  -2   2  342.26   24.72   0
   3 -15  -6  -49.17   57.27   0
   3 -10  -1  248.62   46.07   0
   4  -7   1   53.87   43.25   0
   5 -13  -4  226.40   57.55   0
   5 -12  -3   14.94   52.64   0
   5 -11  -2  -55.04   54.16   0
   7 -12  -4  -18.91   55.57   0
   7 -11  -3  117.50   51.19   0
   7 -10  -2   44.51   51.67   0
  -4 -15 -13   60.29   35.67   0
  -4 -14 -11  -21.20   36.81   0
  -3 -16 -12   29.28   37.35   0
   0 -16  -8  126.19   52.12   0
   0 -10  -2  797.00   33.51   0
   1 -18 -11  116.21   47.93   0
   1 -14  -5  136.52   47.36   0
   1 -13  -4  253.15   48.50   0
   1 -12  -3  -17.84   38.79   0
   2 -17  -9    3.19   51.65   0
   2 -15  -6   16.32   56.27   0
   3 -17  -9  -47.04   52.47   0
   5  -7   1  122.24   47.79   0
  -5 -11 -11   60.19   34.54   0
  -4 -10  -7  605.80   30.14   0
  -4  -5  -6  688.52   29.85   0
  -3 -17 -14  -21.90   39.24   0
  -3 -15 -10  164.07   41.98   0
  -2  -6  -2  506.74   23.31   0
   1 -17  -9   39.79   48.31   0
   2 -10  -1  123.65   41.01   0
   5  -5   2   91.38   41.59   0
   7 -13  -5  -33.71   54.30   0
   7  -9  -1  -92.57   51.08   0
  -5 -10 -10  154.86   33.15   0
  -4  -8  -6 1171.28   29.56   0
  -3  -8  -4  168.15   26.35   0
  -2 -18 -14  -43.88   39.82   0
  -2 -14  -7   12.82   42.21   0
  -2 -13  -6  123.28   37.56   0
  -2  -9  -3 1193.49   30.42   0
  -1 -17 -10  104.48   43.76   0
  -1 -13  -5   41.27   37.15   0
  -1 -12  -4   57.64   35.12   0
  -1  -9  -2  334.93   30.56   0
   1 -11  -2   59.45   36.66   0
   2 -16  -7  157.34   56.29   0
   2  -3   2  658.92   27.75   0
   3 -16  -7   48.28   53.30   0
  -4 -15 -12  -14.33   39.79   0
  -2 -15  -8   -3.57   44.80   0
  -1  -7  -1 2302.13   30.05   0
   0 -18 -11   85.98   46.48   0
   0 -17  -9   79.56   50.55   0
   1  -8   0 1274.25   33.57   0
   6 -12  -3  177.82   53.10   0
   6 -11  -2  178.22   53.08   0
  -4 -16 -14  -43.26   36.13   0
  -4 -13  -9   51.33   40.50   0
  -4 -12  -8  372.48   36.07   0
  -3 -17 -13   51.19   39.39   0
  -2 -18 -13  -16.05   41.96   0
  -2  -7  -2 1190.50   29.34   0
   0 -14  -5  123.81   47.65   0
   0 -13  -4  -18.46   40.95   0
   0  -9  -1  581.88   31.66   0
   1 -16  -7  119.07   51.79   0
   2  -7   1  363.32   33.38   0
   5  -9   0  354.16   53.36   0
   6 -13  -4   -6.12   57.41   0
   6  -7   1   41.87   50.75   0
  -5 -12 -11   65.41   36.95   0
  -5  -8  -9   21.25   31.16   0
  -4 -14 -10    9.40   39.87   0
  -4  -9  -6  180.64   27.77   0
   0 -15  -6  282.00   47.10   0
   0 -12  -3  179.47   37.20   0
   0  -7   0 1074.74   30.08   0
   1 -18 -10   83.59   46.16   0
   1 -10  -1  145.16   35.80   0
   2 -17  -8   50.42   55.08   0
   2  -4   2   70.15   27.77   0
   3 -17  -8  -34.06   56.66   0
   3 -14  -4   94.14   56.09   0
   3 -13  -3  100.27   54.98   0
   5  -1   3   19.60   45.07   0
   6 -14  -5  -13.41   57.18   0
   6 -10  -1   19.69   53.38   0
   7  -8   0  167.71   53.20   0
  -5 -11 -10  294.20   35.81   0
  -5  -9  -9  387.17   32.85   0
  -4 -11  -7  128.66   31.03   0
   0 -16  -7   51.02   53.95   0
   1 -17  -8    6.46   53.84   0
   2 -14  -4  104.81   51.49   0
   2 -13  -3  273.97   50.40   0
   3 -12  -2  197.27   52.04   0
  -4 -16 -13   37.87   36.54   0
  -3 -17 -12   62.64   42.63   0
  -3 -11  -5  456.39   34.87   0
  -1 -17  -9  -51.22   45.71   0
   0 -18 -10  -48.84   47.36   0
   0 -11  -2   61.94   35.93   0
   2 -15  -5  -69.95   57.16   0
   2 -12  -2  -20.68   48.91   0
   3 -15  -5  107.74   53.58   0
   4  -8   1  315.43   45.33   0
  -5 -10  -9   70.01   32.40   0
  -3 -16 -10   -5.82   41.99   0
  -2 -10  -3   65.34   31.29   0
  -1 -10  -2   13.07   32.34   0
  -1  -8  -1  490.67   30.34   0
   1 -14  -4   -1.51   49.35   0
   1 -13  -3   27.62   48.94   0
   4  -6   2   75.73   39.08   0
   5 -13  -3   47.48   55.59   0
   6  -9   0   75.65   53.81   0
  -3 -18 -14   -9.39   40.02   0
  -2 -15  -7   18.29   45.89   0
  -2 -14  -6  175.37   43.75   0
  -2  -8  -2  188.60   28.19   0
  -1 -14  -5  152.96   46.24   0
   0 -17  -8   43.34   50.06   0
   1 -15  -5  133.13   51.54   0
   1 -12  -2   85.20   46.05   0
   1  -9   0  201.33   36.46   0
   2 -16  -6  126.09   55.76   0
   2 -11  -1  171.25   44.28   0
   3 -16  -6   67.36   56.65   0
   5 -14  -4   77.78   60.10   0
   5 -12  -2  156.89   53.58   0
   5  -6   2   21.64   44.61   0
   7 -12  -3   13.26   57.44   0
  -5 -13 -11  134.93   37.26   0
  -5 -12 -10  -13.23   37.47   0
  -4 -16 -12   57.66   38.32   0
  -4 -14  -9  148.39   42.33   0
  -4 -13  -8  241.90   38.48   0
  -2 -12  -4  195.28   36.88   0
   0  -8   0  230.52   30.72   0
   1 -18  -9  105.47   50.68   0
   1 -16  -6    3.40   57.40   0
   2  -5   2    3.32   28.92   0
   4  -1   3 1302.15   43.61   0
   7 -13  -4  -26.71   57.08   0
   7 -11  -2   69.69   52.34   0
  -5 -11  -9    0.51   36.12   0
  -4 -17 -14   66.32   37.56   0
  -4 -15 -10   78.81   40.58   0
  -4  -7  -5  428.91   28.12   0
  -3 -17 -11   35.40   40.99   0
  -3 -10  -4  740.93   30.42   0
  -3  -7  -3   46.57   24.58   0
  -2 -16  -8  -32.98   43.04   0
  -1 -18 -10   11.76   47.28   0
  -1 -12  -3  222.39   36.33   0
  -1  -4   0 2990.26   28.28   0
   0 -14  -4  286.97   51.53   0
   0 -10  -1   38.00   34.43   0
   0  -4   1  337.81   23.25   0
   1  -7   1  582.27   31.25   0
   2 -17  -7   -3.37   54.15   0
   2  -8   1  655.29   37.17   0
   5 -15  -5  150.82   56.28   0
   7 -10  -1   92.31   54.37   0
  -5 -14 -12   -3.18   37.01   0
  -4  -6  -5   44.32   26.34   0
  -3 -18 -13   89.63   40.29   0
  -1  -5   0 1908.63   27.37   0
   0 -18  -9  -41.66   46.89   0
   0 -15  -5   28.23   49.82   0
   0 -13  -3   34.28   44.73   0
   0  -3   1  414.91   21.55   0
   1 -17  -7  -35.66   55.88   0
   1 -11  -1  179.69   38.61   0
   3 -17  -7 -168.30   59.20   0
   5 -10   0  114.36   56.15   0
   6  -2   3  108.09   48.91   0
  -5  -9  -8   57.01   30.95   0
  -5  -8  -8  188.80   33.03   0
  -3  -8  -3  675.82   29.75   0
  -2 -11  -3  118.47   33.48   0
  -2  -9  -2  101.42   31.13   0
  -1 -17  -8   51.48   47.11   0
  -1  -9  -1  318.59   31.61   0
   0 -16  -6  -72.08   52.39   0
   6 -13  -3   -4.01   60.37   0
   6 -12  -2  105.82   55.62   0
   6  -8   1  308.57   55.39   0
  -5 -13 -10  133.24   38.14   0
  -4 -17 -13   26.24   37.71   0
  -4 -16 -11   33.65   39.77   0
  -1  -6   0  696.63   25.21   0
  -1  -3   0  336.01   21.03   0
   2 -15  -4   67.65   61.89   0
   2 -14  -3 -103.74   56.44   0
   3 -15  -4  -23.74   58.52   0
   4  -7   2  168.94   44.01   0
   6 -14  -4   88.90   56.69   0
   6 -11  -1   39.84   54.70   0
   7  -9   0    9.89   54.64   0
  -5 -14 -11   77.79   37.91   0
  -5 -12  -9  105.10   37.53   0
  -5 -10  -8  157.83   31.64   0
  -3 -18 -12  -18.05   41.32   0
  -3 -17 -10   45.29   43.77   0
   0 -17  -7   80.06   51.88   0
   0  -6   1  381.51   29.88   0
   1 -18  -8  153.92   54.04   0
   2 -13  -2  -31.74   51.95   0
   4  -9   1   22.78   49.79   0
   6  -3   3  126.08   49.55   0
  -5  -7  -8  837.27   36.85   0
  -4 -15  -9   84.71   44.42   0
  -4 -14  -8   -7.39   41.17   0
  -4 -13  -7  290.97   38.78   0
  -3  -9  -3   32.01   30.91   0
  -2 -19 -12   42.94   40.53   0
  -2  -6  -1  557.88   25.77   0
  -1 -18  -9  -43.25   45.55   0
  -1 -15  -5  196.65   48.48   0
  -1  -7   0  -18.90   29.14   0
   0  -9   0   29.63   33.98   0
   1 -15  -4  193.86   54.22   0
   1 -14  -3   89.47   50.60   0
   1 -10   0  -15.31   36.77   0
   1  -8   1   69.20   33.71   0
   1  -4   2  321.32   25.88   0
   2 -16  -5  -81.37   54.57   0
   2 -12  -1  295.69   53.52   0
   3 -16  -5   90.13   58.29   0
  -5 -11  -8  107.07   33.51   0
  -3 -14  -6  -50.28   46.24   0
  -2 -16  -7    1.94   45.16   0
  -2  -7  -1  -14.04   29.87   0
  -1 -16  -6   52.06   50.56   0
   0  -2   1  637.12   23.93   0
   1 -16  -5   12.86   54.74   0
   1 -13  -2  204.01   51.64   0
   2  -9   1   88.45   45.01   0
   5  -9   1  205.62   52.61   0
   6 -10   0  167.02   55.30   0
  -4 -16 -10   72.23   38.84   0
  -4  -5  -5   19.06   28.48   0
  -3 -13  -5   16.59   42.89   0
  -2 -17  -8   -2.40   44.53   0
  -2  -4  -1  712.73   24.65   0
  -1 -10  -1  962.31   35.03   0
   0 -18  -8   98.92   47.22   0
   1  -5   2  336.41   29.29   0
   2 -17  -6   13.64   50.63   0
   3 -17  -6  141.41   57.17   0
   5 -14  -3   97.12   59.68   0
   5 -13  -2   37.39   57.12   0
  -3 -18 -11   53.32   44.44   0
  -2 -12  -3  242.60   35.91   0
  -1 -19 -10    8.22   46.14   0
  -1 -17  -7   -2.15   50.08   0
   0 -15  -4  218.98   50.22   0
   0 -14  -3  -36.27   52.11   0
   0  -7   1  189.34   30.98   0
   1 -17  -6  -13.42   52.92   0
   1 -12  -1  -31.68   48.81   0
   2 -11   0  307.31   50.63   0
   2  -7   2  410.94   34.93   0
   5 -15  -4  -62.08   57.68   0
   5 -12  -1 -144.12   52.28   0
  -3 -12  -4  240.41   40.79   0
  -3 -10  -3  336.77   31.70   0
  -2  -8  -1  986.57   31.54   0
  -1 -12  -2  322.12   38.19   0
  -1  -8   0  371.48   31.91   0
   0 -16  -5  198.90   52.54   0
  -5 -15 -11   26.74   36.85   0
  -5  -9  -7  373.71   30.29   0
  -5  -8  -7  106.98   32.16   0
  -4 -18 -13  -45.25   39.46   0
  -4 -17 -11  -14.21   40.78   0
  -1 -18  -8   36.99   43.97   0
   0 -10   0  295.25   37.07   0
   1 -18  -7   35.60   55.75   0
   1  -9   1  246.56   37.94   0
   1  -6   2    7.49   32.26   0
   4  -8   2   20.47   47.40   0
   5  -5   3  123.30   43.51   0
   6  -9   1   29.61   55.25   0
  -5 -10  -7  148.97   31.43   0
  -4 -15  -8  263.83   44.24   0
  -4  -7  -4  364.02   29.26   0
  -2 -11  -2  505.63   36.71   0
   1 -11   0   21.58   46.65   0
   2 -15  -3  146.77   60.01   0
   4 -10   1  -33.54   53.39   0
  -5 -16 -12   40.55   37.51   0
  -4 -16  -9   21.24   41.18   0
  -3 -19 -12   48.51   41.17   0
  -3 -15  -6  -44.71   47.42   0
  -3  -7  -2   32.57   25.00   0
  -2 -16  -6   36.48   47.45   0
  -1 -11  -1  201.41   37.97   0
   0 -18  -7   -5.30   54.03   0
   2 -16  -4   70.33   56.03   0
   2 -14  -2   70.41   55.60   0
   2 -10   1   57.35   46.67   0
   3  -1   3  203.10   32.13   0
   5  -8   2  505.90   52.71   0
   6 -14  -3  -14.69   56.13   0
   6 -13  -2   -7.79   55.04   0
  -5 -15 -10    9.14   42.25   0
  -5 -14  -9    8.45   37.97   0
  -5 -11  -7    0.93   33.22   0
  -4 -18 -12   13.48   41.99   0
  -4 -17 -10   54.83   43.43   0
  -3 -14  -5   66.48   45.66   0
  -3 -11  -3  263.00   36.62   0
  -3  -8  -2  740.74   29.85   0
  -2 -17  -7   38.17   45.12   0
  -1 -19  -9   24.92   48.45   0
  -1  -9   0  297.70   32.92   0
   1 -16  -4   38.61   60.60   0
   1 -15  -3 -125.15   58.79   0
   1 -14  -2  103.66   53.85   0
   1  -7   2  344.76   35.90   0
   2  -8   2  275.29   41.34   0
   4 -15  -3  128.62   58.60   0
   4 -14  -2  -63.51   56.69   0
   6 -12  -1   64.14   53.48   0
  -4  -6  -4  -19.45   26.46   0
  -2 -13  -3  155.71   43.19   0
  -1 -17  -6   63.18   51.20   0
  -1  -2   0 3861.26   34.44   0
   1 -17  -5   83.19   57.30   0
   2 -17  -5   40.45   54.81   0
   4 -16  -4   18.26   56.61   0
   4 -13  -1  126.22   55.90   0
   4  -6   3  -36.71   42.97   0
   5 -10   1   41.15   51.79   0
  -5 -16 -11   62.98   37.80   0
  -5  -7  -7   55.04   31.95   0
  -3 -19 -11   -3.88   41.96   0
  -3 -13  -4  288.68   42.21   0
  -3  -9  -2 1250.87   32.86   0
  -3  -5  -2 2012.68   30.28   0
  -1 -13  -2   52.27   45.43   0
   1 -13  -1  347.50   52.35   0
   2 -12   0  -78.02   55.81   0
   4 -12   0    0.77   57.31   0
   5  -6   3  349.55   47.71   0
   6 -11   0   41.51   53.52   0
  -5 -12  -7  250.35   40.10   0
  -4 -18 -11    5.41   43.41   0
  -4 -16  -8  149.98   46.62   0
  -2 -12  -2   36.10   37.83   0
  -2 -10  -1   45.69   34.54   0
  -1 -18  -7   68.88   45.33   0
   0 -16  -4   27.46   54.44   0
   0 -15  -3   58.20   52.44   0
   0 -11   0  142.99   39.15   0
   0  -9   1  240.07   36.52   0
   1 -18  -6   86.31   53.69   0
   1 -10   1  229.47   40.59   0
   4  -9   2  155.08   56.17   0
   5 -15  -3  -17.71   58.32   0
   5 -14  -2  206.88   59.65   0
   6  -8   2  -44.38   55.42   0
  -5  -9  -6  140.16   31.75   0
  -3 -12  -3   40.22   43.15   0
  -1 -10   0   66.28   35.95   0
  -1  -6   1   68.95   28.83   0
   1 -12   0  361.28   53.87   0
   1  -8   2  304.14   37.13   0
   5 -13  -1  -34.50   59.64   0
  -5 -17 -12   16.47   36.53   0
  -5 -15  -9  156.89   41.84   0
  -5 -14  -8  197.51   40.84   0
  -5 -10  -6  341.14   32.72   0
  -4 -17  -9   47.77   41.07   0
  -3 -10  -2  146.76   33.00   0
  -2 -16  -5   46.26   49.15   0
  -2  -6   0  290.69   29.73   0
  -1 -12  -1  -24.93   38.95   0
  -1  -7   1  928.97   32.99   0
   0 -18  -6  148.52   55.90   0
   0 -13  -1   67.83   53.62   0
   4  -7   3  273.90   47.34   0
   5 -12   0  131.69   56.40   0
   6 -10   1   71.20   55.24   0
  -5 -16 -10  -35.93   39.68   0
  -5 -13  -7   12.15   41.64   0
  -5 -11  -6   15.53   36.45   0
  -5  -8  -6   24.40   28.98   0
  -3 -19 -10  -11.93   42.25   0
  -3 -16  -6  112.98   44.14   0
  -3 -15  -5  138.90   46.97   0
  -2 -17  -6   58.94   47.28   0
  -2 -14  -3   83.24   50.54   0
  -1  -4   1   17.78   23.59   0
   0  -6   2 1196.09   31.63   0
   0  -4   2   69.62   25.30   0
   2 -15  -2  -47.10   58.37   0
   2 -11   1  235.34   51.91   0
   4 -11   1  142.82   56.04   0
   5  -9   2   32.20   52.62   0
  -4 -19 -12  -44.39   40.19   0
  -4 -18 -10  -20.52   45.13   0
  -3 -14  -4  -23.28   46.79   0
  -2 -18  -7   57.34   48.83   0
  -2 -11  -1  188.51   37.37   0
  -2  -8   0   55.89   31.85   0
  -2  -5   0   91.02   24.44   0
  -1 -17  -5  -25.48   51.39   0
  -1  -8   1  -31.12   33.42   0
   2 -16  -3  -20.55   57.26   0
   5  -7   3  -14.64   52.40   0
  -5 -17 -11    7.66   37.75   0
  -3 -11  -2  132.71   38.32   0
  -1 -18  -6  -55.27   50.26   0
   0 -10   1  -39.59   38.84   0
   0  -7   2  115.46   33.01   0
   1 -17  -4  -38.52   55.76   0
   1 -16  -3   33.28   57.36   0
   1 -15  -2   32.25   59.57   0
   1 -11   1   -1.81   50.12   0
   2 -17  -4   39.11   58.51   0
   5 -11   1    4.10   57.76   0
  -5 -12  -6   93.59   40.59   0
  -3 -13  -3  245.62   43.88   0
  -2 -13  -2   39.05   46.65   0
  -1 -11   0  193.75   39.62   0
   1 -14  -1  127.73   55.75   0
   1  -9   2   -2.16   39.39   0
   2 -13   0   57.24   56.94   0
   4 -16  -3   29.01   55.44   0
   4 -15  -2  -18.93   60.10   0
   4 -14  -1  104.96   60.11   0
   6 -13  -1  -10.56   54.54   0
  -5 -16  -9   40.76   42.40   0
  -5 -15  -8  -47.94   39.68   0
  -5 -14  -7   23.26   43.37   0
  -5  -7  -6  613.15   33.33   0
  -4 -19 -11   88.89   42.07   0
  -4 -17  -8   21.70   43.49   0
  -3  -8  -1  201.51   33.01   0
  -3  -7  -1  133.77   29.88   0
  -2 -19  -8    0.70   44.42   0
  -2  -9   0  343.87   34.79   0
  -1 -13  -1  122.47   48.22   0
   0 -17  -4   82.68   55.85   0
   0 -16  -3   40.35   56.73   0
   0  -3   2 4169.41   33.40   0
   1 -18  -5   18.60   50.42   0
   1  -5   3   56.84   31.12   0
   4 -13   0   88.08   57.50   0
   4 -10   2  121.88   56.36   0
   6 -12   0  -29.13   55.10   0
  -5 -17 -10   72.64   41.83   0
  -4 -18  -9  -30.43   47.29   0
  -3 -19  -9   20.85   45.31   0
  -1 -19  -7  245.72   48.06   0
  -1  -9   1  346.92   35.29   0
   0 -18  -5  -34.27   55.00   0
   1  -6   3  780.63   35.63   0
   1  -4   3   60.28   28.22   0
   4  -8   3  222.61   53.83   0
  -6 -11  -9  319.78   39.56   0
  -5 -13  -6  195.44   42.98   0
  -5 -10  -5   25.35   33.01   0
  -5  -9  -5  174.94   31.73   0
  -3 -16  -5   17.12   45.75   0
  -3 -12  -2  375.77   43.25   0
  -3  -9  -1  -25.55   31.87   0
  -3  -6  -1  192.08   24.85   0
  -2 -12  -1  401.61   38.62   0
  -2  -4   0 4334.90   32.84   0
  -1  -3   1 1891.82   27.39   0
   0  -1   1 1997.87   30.22   0
   4  -4   4   31.91   42.23   0
   5 -14  -1   81.40   60.27   0
  -6 -14 -10    6.63   38.73   0
  -5 -11  -5  193.87   34.91   0
  -2 -18  -6  -42.26   45.39   0
  -2 -10   0  277.88   36.52   0
   1 -10   2  117.20   47.80   0
   1  -7   3  224.75   36.56   0
   4 -12   1  126.71   55.35   0
   5 -10   2   73.83   56.52   0
   5  -8   3   33.18   53.51   0
   5  -3   4  142.92   45.80   0
   6 -11   1   84.34   54.70   0
  -6 -13  -9  142.62   39.35   0
  -5  -8  -5  294.76   31.30   0
  -5  -6  -7  215.22   40.80   0
  -4 -19 -10    6.69   43.49   0
  -3 -14  -3   82.65   47.15   0
  -3 -10  -1    1.84   33.70   0
  -2 -14  -2  168.57   49.14   0
  -1 -17  -4   13.86   50.97   0
  -1 -12   0  242.24   41.29   0
  -1 -10   1  496.53   38.26   0
   0 -13   0  267.58   51.29   0
   0  -9   2   38.23   36.66   0
   1 -12   1   80.93   55.20   0
   1  -3   3  537.07   27.46   0
   4  -5   4  464.37   41.60   0
   5 -13   0  -59.81   59.25   0
  -5 -16  -8   76.48   40.04   0
  -5 -12  -5   64.07   39.15   0
  -4 -17  -7   51.16   46.80   0
  -2 -19  -7  -44.55   47.22   0
  -1 -18  -5  155.85   49.57   0
   1 -17  -3   43.10   55.91   0
   1 -16  -2  -75.36   56.87   0
   3  -5   4  309.37   39.18   0
  -6 -15 -10   12.54   39.82   0
  -6 -14  -9  170.16   41.00   0
  -6 -11  -8  118.00   38.50   0
  -5 -17  -9   47.44   39.66   0
  -5 -14  -6  123.73   43.83   0
  -4 -18  -8   81.83   45.73   0
  -4 -12  -3  219.52   38.53   0
  -3  -5  -1   17.93   24.09   0
  -2 -11   0  193.72   38.51   0
  -1 -14  -1    2.51   50.13   0
   1 -15  -1   68.36   58.16   0
   1  -8   3  -29.05   41.66   0
   3  -3   4  336.77   35.25   0
   4  -6   4  423.79   47.94   0
   4  -2   4 1824.99   44.07   0
   5 -12   1   65.38   57.24   0
   5  -2   4  250.51   47.20   0
  -6 -12  -8  168.72   38.91   0
  -5 -18 -10   80.71   41.86   0
  -4  -9  -2  -34.09   31.76   0
  -3 -11  -1   98.67   36.66   0
  -2 -13  -1  -27.34   48.63   0
  -2  -7   1  829.86   32.89   0
  -1  -7   2  925.16   33.30   0
  -1  -6   2   46.32   30.72   0
   0 -17  -3   43.90   57.03   0
   3  -6   4   41.23   41.14   0
   4 -15  -1  148.21   59.38   0
   4 -11   2  144.77   54.29   0
  -6 -13  -8   14.33   39.83   0
  -5 -13  -5  -32.85   39.84   0
  -4 -19  -9  -25.24   43.74   0
  -3 -16  -4  174.68   51.00   0
  -2  -8   1  224.28   33.14   0
  -2  -6   1   75.25   28.64   0
  -1 -11   1   92.64   38.96   0
   0 -18  -4   64.71   54.53   0
   0 -12   1  275.15   50.50   0
   0 -10   2  290.69   39.26   0
   1 -11   2  186.06   52.41   0
   3 -13   1  -24.01   61.25   0
   4 -14   0  124.76   60.53   0
   5  -6   4   29.07   53.54   0
   6 -10   2    6.06   53.78   0
  -5 -10  -4  208.88   34.20   0
  -5  -7  -5  587.31   31.03   0
  -4 -13  -3  250.59   46.62   0
  -2 -16  -3   76.59   52.56   0
  -1 -13   0    2.66   49.92   0
  -1  -8   2  242.06   34.96   0
   0  -6   3  666.56   34.59   0
   6  -4   4  -18.27   50.60   0
  -6 -16 -10   80.77   39.42   0
  -6 -15  -9   11.33   39.02   0
  -5 -17  -8  146.39   41.48   0
  -5 -16  -7   46.31   40.18   0
  -5 -11  -4   16.16   35.05   0
  -5  -9  -4  306.35   31.12   0
  -4 -11  -2  192.18   40.23   0
  -3 -12  -1   39.44   43.18   0
  -3  -8   0 1029.85   35.15   0
  -2 -19  -6  108.96   50.63   0
  -2 -15  -2  -31.45   49.81   0
  -2 -12   0   85.01   40.40   0
  -2  -9   1  -31.62   35.59   0
   0 -14   0   24.07   57.45   0
   0  -7   3  405.67   34.31   0
   0  -5   3  345.09   30.50   0
   0  -2   2  970.70   25.75   0
   3  -7   4  278.69   44.96   0
   4 -13   1   33.54   60.13   0
   4  -7   4  -25.81   53.20   0
  -6 -14  -8  -19.41   40.18   0
  -6 -11  -7  281.82   38.94   0
  -5 -18  -9  -10.73   42.79   0
  -4 -18  -7  -46.37   44.14   0
  -3 -14  -2   17.21   49.35   0
  -3  -9   0   95.59   33.96   0
  -3  -7   0  101.42   29.88   0
  -2  -5   1  812.25   28.27   0
  -1 -18  -4  -12.26   54.27   0
  -1 -16  -2   33.70   54.16   0
  -1  -9   2  126.85   36.55   0
   1  -2   3  878.85   30.01   0
   3 -10   3   90.52   52.45   0
   6  -5   4   73.76   53.66   0
  -6 -12  -7   45.37   38.92   0
  -5 -14  -5   74.49   42.92   0
  -5 -12  -4  106.25   40.17   0
  -2 -10   1   10.09   37.51   0
  -1 -15  -1  -70.13   52.51   0
  -1 -12   1  196.15   50.63   0
  -1  -4   2  817.23   27.42   0
   0 -11   2   96.61   47.42   0
   0  -8   3   82.78   35.78   0
   0  -4   3  994.94   30.94   0
   3 -12   2  164.26   56.48   0
   4 -10   3   42.72   54.01   0
   5 -14   0   50.82   58.00   0
   5  -7   4  238.72   55.99   0
  -6 -10  -7  298.20   35.67   0
  -5  -6  -6  600.19   36.75   0
  -4 -19  -8    5.16   41.84   0
  -4 -14  -3   49.52   48.73   0
  -4 -12  -2  -19.70   39.72   0
  -3 -10   0    8.57   35.63   0
  -3  -6   0  508.36   29.32   0
  -2  -3   0  418.03   23.02   0
   0 -13   1  -53.31   51.19   0
   1 -17  -2   46.04   59.65   0
   1 -16  -1  -32.33   57.56   0
   3  -8   4   93.41   49.14   0
   4 -12   2   53.52   57.84   0
  -6 -16  -9   53.18   38.52   0
  -5 -19 -10   27.61   38.61   0
  -3 -13  -1  134.30   49.67   0
  -1 -14   0   49.59   50.43   0
  -1 -10   2  232.37   38.79   0
   1 -15   0   51.76   57.65   0
   1 -12   2   15.56   52.72   0
   1 -10   3  130.34   48.85   0
   3 -16  -1    6.44   55.99   0
   3 -15   0  -55.44   63.10   0
   4  -8   4  -26.43   54.19   0
   5 -13   1  -29.34   59.08   0
  -6 -14  -7  161.14   42.34   0
  -5 -17  -7   26.83   41.62   0
  -5 -16  -6   94.22   41.83   0
  -3 -18  -5   30.76   46.37   0
  -3 -16  -3  -11.46   50.38   0
  -3 -11   0  203.29   37.70   0
  -3  -4  -1  986.07   26.88   0
  -2 -17  -3   90.66   49.12   0
  -2 -13   0   60.41   48.91   0
   0 -16  -1  108.26   56.15   0
   1  -6   4  191.03   34.69   0
   1  -5   4  114.54   32.83   0
  -6 -11  -6  351.48   38.51   0
  -5 -18  -8   25.56   41.72   0
  -5 -15  -5   27.88   44.03   0
  -4 -13  -2  171.48   47.20   0
  -4  -9  -1  329.01   30.85   0
  -2 -16  -2  -10.70   51.81   0
   1 -14   1  -26.32   56.68   0
   3 -14   1  -42.08   58.55   0
   3 -11   3   37.33   56.99   0
  -6 -12  -6  276.33   36.92   0
  -6  -9  -7  102.53   35.87   0
  -5  -9  -3    0.71   31.24   0
  -5  -7  -4  147.55   29.95   0
  -2  -4   1 2443.57   29.28   0
  -1 -13   1   37.08   48.72   0
  -1 -11   2  518.16   43.56   0
   0 -12   2   56.56   51.14   0
   3  -9   4    3.76   52.41   0
   4 -15   0   78.83   56.46   0
  -6 -17  -9   67.07   37.54   0
  -6 -16  -8  129.61   37.56   0
  -6 -15  -7   34.33   42.96   0
  -6 -13  -6   52.12   37.75   0
  -6 -10  -6    6.81   33.02   0
  -5 -19  -9   21.27   37.86   0
  -4 -19  -7  -70.48   43.18   0
  -4 -15  -3   52.06   45.81   0
  -4 -11  -1  114.35   38.65   0
  -3 -12   0  148.19   45.35   0
  -3  -5   0  624.62   26.00   0
  -2  -7   2  261.79   31.97   0
  -1 -18  -3  156.24   50.25   0
  -1 -17  -2   20.46   52.15   0
  -1 -16  -1   47.05   55.33   0
  -1  -7   3  101.81   32.73   0
   0  -3   3 1358.31   27.44   0
   1 -11   3  116.32   54.23   0
   1  -8   4  376.99   44.15   0
   4 -14   1  139.90   58.38   0
   4 -11   3  224.21   52.97   0
  -5  -8  -3  449.94   30.41   0
  -4  -7  -1   24.49   28.03   0
  -2 -14   0   49.80   51.15   0
  -2 -12   1   45.44   44.20   0
  -2  -6   2  509.23   30.77   0
  -1  -8   3  243.19   35.67   0
  -1  -6   3  805.10   33.06   0
   0 -14   1    5.17   56.29   0
   1 -13   2  -60.98   54.40   0
   3 -13   2  -52.88   54.37   0
   4  -9   4   -4.37   50.11   0
  -6 -14  -6   82.77   39.05   0
  -5 -18  -7   18.49   43.43   0
  -5 -17  -6   30.88   41.87   0
  -5 -16  -5   84.84   42.94   0
  -4 -14  -2  152.29   46.43   0
  -4 -12  -1  336.00   43.66   0
  -3  -9   1  212.20   34.22   0
  -3  -8   1   99.52   33.15   0
  -1 -15   0  -56.69   55.49   0
  -1  -3   2 1785.81   26.25   0
   4  -5   5   80.87   43.74   0
  -3 -10   1  163.13   38.63   0
  -3  -7   1  507.30   30.63   0
  -2 -10   2  182.44   38.48   0
  -1 -12   2   90.45   51.57   0
  -1  -9   3  126.55   36.72   0
  -1  -5   3  630.60   29.81   0
   1 -17  -1   71.30   52.83   0
   1 -16   0  -76.47   56.40   0
   1  -9   4   26.79   45.36   0
   3  -5   5  487.12   37.52   0
   4 -13   2  104.16   56.25   0
  -6 -17  -8    7.20   39.33   0
  -6 -16  -7   -8.69   38.58   0
  -6 -12  -5  242.22   38.09   0
  -6 -11  -5    7.83   36.80   0
  -6  -9  -6   56.91   34.53   0
  -5 -19  -8   15.31   38.13   0
  -3 -19  -5   45.44   42.46   0
  -3 -13   0   87.77   47.39   0
  -2 -17  -2  301.97   48.29   0
  -1 -14   1   69.84   53.90   0
   0 -17  -1   -4.78   54.29   0
   0 -13   2   47.98   51.40   0
   0 -11   3  200.65   48.84   0
   0  -7   4   -9.04   32.70   0
   1  -3   4  586.84   27.65   0
   3 -12   3  111.15   53.61   0
   3  -4   5  308.45   37.57   0
   4  -6   5  154.75   45.19   0
   5 -11   3   25.18   50.08   0
   5  -9   4    9.01   52.23   0
  -6 -18  -9   43.32   38.12   0
  -6 -15  -6   54.10   39.75   0
  -6 -13  -5  262.57   39.64   0
  -6 -10  -5  312.18   34.13   0
  -4 -16  -3    8.79   42.66   0
  -4 -13  -1   50.90   46.86   0
  -2 -16  -1  112.37   49.84   0
  -2 -13   1   35.08   48.31   0
  -2  -5   2  106.45   26.92   0
  -1 -10   3   46.95   39.87   0
   0  -5   4 1901.72   33.75   0
   1 -15   1  -89.47   58.37   0
   3 -15   1    0.65   56.21   0
  -4 -10   0  163.74   38.77   0
  -4  -9   0  126.89   33.64   0
  -3 -11   1   -2.00   36.39   0
  -3  -6   1 2378.84   31.94   0
  -2 -11   2   -5.44   38.30   0
   4 -12   3   40.50   53.10   0
   4 -10   4  -15.86   51.84   0
   4  -7   5  125.41   49.07   0
  -6 -14  -5   23.22   40.62   0
  -5 -18  -6  -72.44   42.68   0
  -5 -17  -5   71.08   41.73   0
  -5  -7  -3 1386.60   31.21   0
  -4  -8   0   15.45   30.81   0
  -1 -18  -2  -99.36   48.50   0
  -1  -4   3  484.70   27.88   0
   0 -15   1    8.44   51.68   0
   3 -14   2   37.45   58.90   0
   3  -3   5   13.10   35.08   0
  -4 -11   0  -20.29   39.29   0
  -3 -14   0    1.92   44.96   0
  -3 -12   1  127.94   47.09   0
  -1 -16   0   21.77   49.45   0
  -1 -13   2  -48.47   48.31   0
  -1 -11   3    1.66   48.47   0
  -1  -1   0 1772.67   32.09   0
   0 -12   3   -6.33   48.97   0
   0  -4   4   30.43   30.21   0
   3  -8   5  201.03   50.52   0
  -6 -18  -8   24.44   36.83   0
  -6 -12  -4  129.04   40.47   0
  -6 -11  -4  143.26   39.06   0
  -4 -14  -1  -13.30   45.16   0
  -2 -14   1   10.69   49.78   0
  -2 -12   2  223.79   46.57   0
   0 -14   2    1.96   55.65   0
   3 -11   4    8.26   50.72   0
   4  -8   5   27.22   48.84   0
  -6 -15  -5   23.93   37.85   0
  -4 -17  -3   94.98   45.69   0
  -4 -12   0   38.07   42.89   0
  -4  -7   0  408.39   27.57   0
  -3  -4   0  120.15   22.55   0
  -2  -8   3  731.57   34.02   0
  -2  -7   3  918.45   31.88   0
  -2  -3   1   18.15   20.91   0
   1  -1   3  310.04   24.07   0
   3 -13   3   -2.08   56.82   0
   4 -14   2   25.69   53.35   0
  -3  -9   2   17.91   33.33   0
  -3  -8   2  764.97   33.62   0
  -3  -5   1  161.37   24.68   0
  -2 -17  -1  -48.59   48.94   0
  -2  -4   2   41.33   24.35   0
  -1  -8   4   52.46   36.58   0
  -1  -7   4  535.18   33.38   0
   0  -2   3  288.76   22.91   0
  -3 -13   1  166.56   44.10   0
  -3 -10   2  123.79   35.45   0
  -3  -7   2  657.47   31.06   0
  -2 -16   0   84.73   47.72   0
  -2 -10   3  193.83   36.46   0
  -2  -6   3   -1.35   30.69   0
  -1 -12   3  173.41   45.70   0
  -1  -6   4   51.04   31.14   0
   0 -17   0  -21.79   50.64   0
  -8  -7   7   17.73   43.57   0
  -8  -5   5   48.50   44.54   0
  -8  -4   2   -8.89   44.72   0
  -7  -4   6   12.44   48.18   0
  -2 -10  11   79.47   70.29   0
  -2  -5  11  233.92   63.34   0
  -2  -3  10   98.71   49.66   0
  -1  -5  11  -84.23   64.75   0
   2  -7  10  197.60   55.82   0
   3  -6   9    0.19   54.47   0
  -9  -7   5  107.32   44.83   0
  -4  -9  11  112.88   64.17   0
  -4  -8  11   56.01   61.96   0
  -4  -7  11   -2.98   62.53   0
  -4  -1   6 1406.62   44.17   0
  -3 -10  11   80.35   61.00   0
  -2   0   5 2148.39   39.24   0
   2  -8  10   12.79   57.53   0
   2  -6  10  156.00   58.21   0
  -9  -8   6   49.50   41.99   0
  -8  -9   8  -70.47   49.96   0
  -7  -3   4  200.19   41.17   0
  -6 -10  10   30.90   56.27   0
  -6  -2   4  993.04   40.29   0
  -4 -10  11   60.98   60.72   0
  -3  -5  11   87.79   59.47   0
  -1   0   6 2147.51   41.33   0
   0  -9  11  109.30   68.15   0
   0  -5  11  142.62   60.42   0
   0   0   6  175.50   39.08   0
   1   0   5  -19.25   33.06   0
   3  -3   8  664.08   46.53   0
   4  -6   8   20.79   53.70   0
  -9  -6   4   -9.66   44.67   0
  -8  -8   8  -37.43   48.77   0
  -8  -4   3  615.95   48.91   0
  -4  -6  11    4.91   57.42   0
  -2  -4  11  177.93   56.13   0
  -1  -4  11   45.80   58.86   0
   2  -9  10   39.63   60.33   0
  -9 -10   7    6.42   42.62   0
  -8  -6   7   75.19   45.46   0
  -5  -8  11  -56.94   60.40   0
  -5  -1   2  717.73   39.66   0
  -5  -1   3  250.68   35.98   0
  -3   0   3   95.18   31.76   0
  -2   0   6 1124.69   41.41   0
   0 -10  11  -11.45   64.26   0
   0  -4  11  214.97   59.97   0
   1  -8  11  -36.22   63.79   0
   1  -7  11    1.97   59.60   0
   1  -6  11   50.28   58.85   0
   1  -1   8  100.87   41.52   0
   4  -5   8  183.31   51.00   0
  -9  -9   7  -43.47   46.15   0
  -8  -5   6    9.73   44.55   0
  -7  -5   8  109.85   48.14   0
  -7  -4   7  250.80   48.93   0
  -6  -2   5  -13.78   39.90   0
  -5 -10  11  -56.96   52.99   0
  -5  -9  11  149.14   52.15   0
  -4  -5  11  166.45   55.32   0
  -3  -4  11  182.59   57.55   0
  -3   0   4  701.06   33.48   0
   2  -4  10  295.07   51.73   0
   4  -2   5   -7.30   38.64   0
  -9  -7   6   11.01   44.18   0
  -8  -7   8  201.76   45.87   0
  -8  -4   4    0.56   46.83   0
  -7  -3   5  124.47   42.22   0
  -5  -3   9   -5.53   45.77   0
  -5  -1   4  284.59   38.32   0
  -4  -1   7   17.05   40.30   0
  -2  -8  12   48.97   64.55   0
  -2  -7  12   69.21   67.78   0
  -2  -6  12   26.02   66.50   0
  -1  -7  12  144.19   64.60   0
  -1   0   7  616.98   40.37   0
   1  -9  11  147.95   66.09   0
   1   0   6 1134.04   37.87   0
   2 -10  10  120.31   61.46   0
  -9  -6   5   -2.56   45.50   0
  -5  -6  11   85.37   57.51   0
  -3  -8  12   48.36   60.21   0
  -3  -7  12   11.52   63.82   0
  -3  -6  12   80.16   63.80   0
  -3   0   5   85.59   33.68   0
  -2  -9  12  141.91   67.46   0
  -2  -3  11  141.37   47.39   0
   0   0   7  318.10   39.66   0
  -5  -2   8  197.78   46.71   0
  -5  -1   1  381.86   40.57   0
  -3  -9  12 -113.38   57.41   0
  -2   0   7  385.38   41.38   0
  -1  -5  12  169.01   58.86   0
   0  -3  11    2.60   49.93   0
   4  -4   8  155.21   50.04   0
  -8  -9   9    1.72   44.91   0
  -6  -9  11  -72.91   53.99   0
  -4  -9  12  134.17   58.82   0
  -4  -8  12   63.29   57.47   0
  -4  -7  12   12.13   59.45   0
  -3  -5  12  115.79   56.91   0
   0  -8  12   -8.76   62.22   0
   1 -10  11  -94.25   61.25   0
   2  -7  11    7.65   56.86   0
   2  -6  11  133.81   53.39   0
   3  -3   9   70.68   47.03   0
   3  -2   8   72.16   39.86   0
   3  -1   6   75.50   35.93   0
  -8  -8   9   -3.34   45.76   0
  -8  -6   8   49.43   43.65   0
  -8  -5   7   74.24   43.69   0
  -8  -4   5  166.74   44.79   0
  -7  -3   6  208.83   45.46   0
  -4  -6  12   55.58   59.92   0
  -3   0   6 1306.45   37.27   0
   2  -8  11   24.80   58.96   0
   2   0   4  174.10   31.68   0
   3  -8  10   59.63   50.17   0
  -7  -4   8   51.23   45.60   0
  -4  -1   8  649.12   39.84   0
  -1   0   8  350.68   43.79   0
   0  -9  12   77.93   58.79   0
  -9  -9   8   21.85   41.73   0
  -9  -7   7   55.20   40.81   0
  -9  -6   6  104.30   43.03   0
  -8  -7   9  -61.56   47.51   0
  -5  -9  12   36.97   50.50   0
  -5  -8  12   64.18   49.61   0
  -4  -5  12  -16.55   55.12   0
  -3  -4  12  151.87   58.00   0
   0  -4  12  154.77   59.87   0
   0   0   8  255.50   41.60   0
   1  -7  12   50.66   59.17   0
   1  -6  12   25.60   58.61   0
   2  -9  11   56.84   60.13   0
  -9  -5   4  -20.20   42.72   0
  -8  -4   6  111.53   44.83   0
  -5  -2   9   83.91   46.15   0
  -3   0   7  320.72   37.68   0
  -2   0   8  272.18   41.95   0
   1  -8  12  207.14   63.25   0
   4  -5   9   43.31   50.38   0
  -9  -8   8  -34.10   43.30   0
  -7  -3   7   59.43   47.61   0
  -5  -6  12  -52.78   55.19   0
  -3  -7  13  171.09   59.44   0
  -2  -8  13   51.70   61.93   0
  -2  -7  13   46.11   57.85   0
  -2  -6  13   -0.79   66.43   0
   3  -1   7  287.05   36.88   0
  -8  -5   8   79.33   43.42   0
  -4  -1   9  235.12   43.06   0
  -3  -8  13  -77.43   54.41   0
  -3  -6  13   84.96   59.31   0
  -1  -6  13   -1.31   58.57   0
   0  -3  12  327.92   56.21   0
   1  -9  12  103.25   59.42   0
   1   0   8  389.53   41.54   0
  -9  -5   5   68.65   42.68   0
  -8  -8  10  -24.42   45.38   0
  -8  -6   9   47.63   42.03   0
  -7  -4   9  288.27   48.06   0
  -4  -8  13  -61.53   56.40   0
  -4  -7  13  -34.63   59.05   0
  -3  -5  13 -110.64   58.86   0
  -3   0   8  582.31   39.26   0
  -1  -5  13   64.63   60.68   0
  -1   0   9  968.89   41.76   0
  -9  -6   7   50.07   39.46   0
  -8  -4   7  -80.70   43.80   0
  -6  -8  12   10.25   50.18   0
  -4  -6  13   22.88   56.50   0
  -4   0   6   32.98   34.82   0
  -2   0   9  562.19   42.76   0
   3  -3  10   49.22   50.30   0
   4  -4   9  -15.91   49.56   0
  -7  -3   8  225.25   47.78   0
  -7  -2   4   -6.78   38.03   0
  -5  -2  10  265.68   48.39   0
   0  -8  13  177.18   57.63   0
  -8  -7  10   90.38   43.82   0
  -7  -2   3  125.35   38.76   0
  -4  -5  13   78.83   57.37   0
  -4   0   7  522.79   37.64   0
   3  -1   8  314.98   37.26   0
  -9  -8   9  -14.22   40.24   0
  -9  -5   6   49.59   41.47   0
  -8  -5   9   55.18   42.31   0
  -8  -3   3  181.42   41.04   0
  -8  -3   4   45.36   44.11   0
  -7  -2   5  223.34   37.76   0
  -5  -8  13  -45.99   44.89   0
  -5  -7  13  167.41   47.14   0
  -3   0   9   41.21   40.76   0
  -1   1   5  564.73   29.89   0
  -1   1   6  187.42   31.55   0
   1  -6  13  113.31   58.03   0
   1   0   9  164.79   39.43   0
  -7  -4  10  -40.02   45.32   0
  -7  -2   2   15.35   38.05   0
  -7  -2   6  326.11   41.52   0
  -6  -1   4  227.08   36.81   0
  -6  -1   5  118.43   36.59   0
  -5  -6  13   80.23   47.47   0
  -5  -1   0  127.66   38.71   0
   0   1   5   44.41   25.99   0
   0   1   6  262.62   30.25   0
   1  -7  13 -148.96   59.83   0
   1  -5  13  -60.99   55.02   0
   2   0   2  110.59   30.43   0
  -9  -6   8  -43.20   38.47   0
  -8  -6  10   95.34   42.56   0
  -8  -4   8  121.84   42.16   0
  -8  -3   5  313.29   42.95   0
  -7  -3   9  137.84   47.01   0
  -6  -1   3  350.34   35.42   0
  -6  -1   6   87.66   37.41   0
  -5  -1   9  136.45   41.04   0
  -4   0   8  150.47   38.15   0
  -3  -7  14 -116.13   53.46   0
  -2  -7  14  133.66   60.60   0
  -2  -6  14  -50.69   53.64   0
  -2   1   6  140.86   33.79   0
  -1   1   4  626.53   27.85   0
  -1   1   7   38.19   33.22   0
   0  -3  13   91.88   56.37   0
   1  -8  13  -44.44   58.32   0
   3  -2  10  467.23   44.63   0
   4  -5  10   51.68   47.73   0
   4  -3   9  125.10   46.18   0
  -9  -7   9  134.90   39.58   0
  -9  -5   7   29.06   40.86   0
  -3  -6  14 -140.19   53.86   0
  -2  -5  14   69.62   59.66   0
  -2   1   5 1049.71   31.01   0
  -1  -5  14  124.27   57.73   0
   0   1   7  413.83   34.88   0
  -8  -3   6   42.40   42.60   0
  -7  -2   7   26.95   42.99   0
  -6  -1   7   40.01   37.79   0
  -4  -7  14 -158.47   52.95   0
  -3  -5  14   50.18   55.05   0
  -3   0  10   49.07   41.00   0
  -2   1   7 1388.60   35.90   0
  -1   1   8 1358.82   39.62   0
   0   1   4  213.48   25.49   0
   1   0  10  309.81   42.86   0
   3  -3  11   39.72   47.60   0
   3  -1   9  202.18   37.49   0
   4  -4  10   -8.84   48.40   0
  -8  -7  11   12.26   39.78   0
  -4  -6  14   58.72   51.67   0
  -4   0   9   67.07   39.81   0
  -2   1   4 3607.24   37.08   0
  -2   1   8  110.12   38.90   0
  -1  -4  14   87.56   58.01   0
   0  -7  14   34.93   57.66   0
   0   1   8   98.21   35.84   0
  -8  -5  10   14.64   39.48   0
  -8  -4   9   -0.10   41.00   0
  -6  -6  13  -27.50   46.17   0
  -5  -1  10  132.25   41.18   0
  -5   0   5   21.44   33.39   0
  -4  -5  14   76.66   51.35   0
  -8  -6  11  149.26   42.83   0
  -8  -3   7  117.07   41.54   0
  -7  -3  10  121.53   44.14   0
  -7  -2   8  298.74   44.71   0
  -6  -1   8  322.92   39.76   0
  -3   1   6 1932.00   36.12   0
  -2  -3  14  -96.82   55.96   0
  -1   1   9  256.43   40.29   0
   1   1   5 3567.64   36.14   0
   1   1   7 1364.74   34.01   0
   3  -5  12   67.45   49.30   0
   3   0   6  557.74   34.46   0
   4  -1   5  296.07   37.39   0
  -9  -5   8   -5.37   38.31   0
  -7  -2   1   40.17   38.19   0
  -5  -6  14  -94.32   45.05   0
  -5   0   4 1045.45   36.05   0
  -3   0  11  591.87   43.32   0
  -3   1   5 1024.91   33.36   0
  -3   1   7  555.81   34.34   0
  -2   1   9  899.12   39.24   0
  -1   1   3 1516.76   31.40   0
   0   1   9  462.85   39.99   0
   1   1   8  953.07   38.04   0
   3  -4  12  100.30   51.22   0
   4  -3  10   62.75   45.63   0
   4  -2   9  291.63   39.63   0
  -9  -7  10    7.67   37.10   0
  -9  -4   6    8.67   40.19   0
  -4   0  10  427.88   41.42   0
  -3   1   8  303.75   38.03   0
   1  -6  14   -0.09   52.96   0
   1  -5  14   80.82   52.96   0
   1   0  11   89.20   42.39   0
   3  -2  11    9.49   46.95   0
   3  -1  10  133.75   39.61   0
   3   0   7   11.70   34.29   0
   4  -1   4  153.21   38.45   0
  -8  -3   8   65.92   40.68   0
  -7  -2   9    8.02   44.87   0
  -5  -1  11   80.15   48.84   0
  -3  -6  15  -34.21   49.43   0
  -2  -6  15  125.56   56.36   0
  -2  -5  15   21.96   51.97   0
  -1   1  10  358.86   41.65   0
   1  -7  14  -17.90   53.60   0
  -8  -5  11  -12.07   41.85   0
  -8  -4  10   71.53   39.29   0
  -3  -5  15   90.97   51.95   0
  -3   1   9   61.15   38.84   0
  -2   1   3  932.10   30.22   0
   0   1   3   50.55   23.32   0
   0   1  10   63.87   41.52   0
   1   1   4 3661.08   36.51   0
   1   1   9   58.48   36.90   0
   3  -3  12  -42.05   44.47   0
  -9  -6  10   46.24   37.45   0
  -9  -5   9  -12.87   36.28   0
  -9  -4   7   51.18   39.16   0
  -7  -3  11   40.45   43.21   0
  -5   0   3  162.74   33.45   0
  -4  -6  15   63.78   47.49   0
  -4   0  11  -53.10   46.34   0
  -3   1   4   44.83   30.03   0
  -1  -4  15   37.56   54.20   0
   4  -4  11   -1.17   44.74   0
  -8  -3   9   62.93   41.47   0
  -6  -6  14   46.95   42.69   0
  -4  -5  15   70.32   49.40   0
   0  -6  15   21.29   51.16   0
  -8  -6  12  -14.17   38.38   0
  -7  -2  10   34.91   45.76   0
  -5  -1  12  103.38   50.70   0
  -4   1   7  339.33   33.68   0
  -3   1  10  248.03   38.20   0
  -1  -3  15   16.70   55.94   0
   0   1  11  371.89   45.91   0
   1   1  10  807.51   39.14   0
   2   1   7 1252.87   34.48   0
   3  -1  11  117.90   42.21   0
   4  -2  10  -22.60   42.51   0
  -9  -4   8  -16.63   38.59   0
  -4   1   8   51.15   34.76   0
   2   1   6 2067.51   34.99   0
   2   1   8  213.51   32.49   0
   3  -5  13  -57.74   45.33   0
   3  -2  12  100.02   46.17   0
   4  -3  11   15.73   44.79   0
  -8  -4  11  -38.40   40.38   0
  -7  -1   5  143.82   35.84   0
  -7  -1   6    1.58   35.23   0
  -7  -1   7  380.23   41.28   0
  -4   0   1  317.03   35.32   0
  -4   0  12  251.98   49.24   0
   3  -4  13   -8.01   46.93   0
  -8  -5  12  -36.73   38.84   0
  -8  -3  10   65.27   39.99   0
  -8  -2   5   62.43   39.50   0
  -8  -2   6  200.59   39.89   0
  -7  -3  12    8.99   42.34   0
  -4   1   9  247.11   34.83   0
  -3   1  11  329.32   40.32   0
   1  -6  15    1.90   51.33   0
   4  -1   9   74.48   37.09   0
  -9  -6  11  -62.25   34.90   0
  -8  -2   4   73.91   38.04   0
  -8  -2   7  351.55   40.43   0
  -7  -2  11   71.54   42.79   0
  -7  -1   8   10.90   41.88   0
  -6   0   6  108.78   34.52   0
  -6   0   7   57.32   35.33   0
  -5   0  11  143.37   46.75   0
  -3  -5  16  -87.41   46.85   0
  -2  -5  16   90.99   52.57   0
   2   1   5  636.63   28.59   0
   3  -3  13  140.91   49.99   0
   3   0  10   23.33   36.28   0
  -9  -4   9   27.15   35.97   0
  -7  -1   4   94.75   35.75   0
  -6  -1   1  432.80   38.26   0
  -6   0   8  114.47   37.88   0
  -5  -1  13 -125.99   49.11   0
  -4   1  10   68.97   39.73   0
  -2  -4  16  -42.13   48.34   0
  -1   2   7  278.96   30.32   0
  -1   2   8  242.52   33.23   0
   5  -2   6   13.14   38.64   0
  -8  -2   8   38.36   39.94   0
  -7  -1   9  134.13   42.09   0
  -6   0   5  641.62   36.06   0
  -2   2   8  901.08   36.43   0
  -1   2   9  814.12   37.24   0
   0   2   8 1609.41   34.01   0
   3  -1  12  139.72   46.61   0
   4  -2  11   32.00   45.42   0
   5  -2   7   82.11   39.75   0
  -8  -4  12  -58.50   38.96   0
  -8  -3  11   15.00   39.60   0
  -6   0   9  122.26   38.85   0
  -4   1  11  186.18   44.32   0
  -2   2   7   57.45   31.25   0
  -2   2   9   44.97   35.60   0
  -1  -3  16   36.21   52.44   0
  -1   2   6   24.98   27.39   0
  -1   2  10  641.35   37.15   0
   0  -5  16   86.58   49.96   0
   0   2   7   -4.08   29.58   0
   0   2   9 1144.98   36.86   0
   1   1  12  113.72   47.89   0
   3  -2  13    3.23   45.67   0
   4  -1  10  198.37   38.26   0
  -9  -5  11  -53.47   35.70   0
  -9  -4  10   28.06   36.57   0
  -9  -3   7   -7.78   37.43   0
  -8  -2   9  119.28   40.85   0
  -7  -3  13   33.98   40.84   0
  -7  -2  12   61.93   42.61   0
  -5   0   2   96.59   32.08   0
  -5   0  12  -36.90   46.41   0
  -2   2  10  115.32   37.81   0
   0   2  10   96.24   37.09   0
   1   1   3  502.13   24.43   0
   4  -3  12  104.96   44.59   0
  -7  -1  10  132.31   41.69   0
  -2   2   6  209.08   30.63   0
  -1   2  11   49.14   42.18   0
   0   2   6  611.38   27.29   0
   3  -4  14  119.72   46.88   0
   5  -2   8  162.77   39.93   0
  -9  -3   8   91.06   37.86   0
  -7  -4  14  -90.03   39.83   0
  -7  -1   3   90.66   35.33   0
  -6   0   4  128.66   31.62   0
  -5  -1  14   39.26   46.42   0
  -3   2   8   12.60   35.11   0
  -3   2   9  167.01   36.78   0
  -2   2  11  234.18   43.09   0
  -1   1   2  245.26   22.33   0
   0   2  11  458.98   42.76   0
   1   2   8   46.05   30.60   0
   1   2   9  609.60   34.21   0
   2  -1  14   13.19   47.03   0
   3   0   3  172.50   33.90   0
  -8  -2  10    9.21   40.24   0
  -5  -2  15  170.94   44.86   0
  -5   1   6  213.00   31.71   0
  -4   1  12   70.86   43.89   0
  -3   2   7 1216.55   34.24   0
  -3   2  10  315.95   38.18   0
   1   1  13  168.30   48.09   0
   3  -3  14   52.30   45.91   0
   3  -1  13    4.50   47.86   0
  -9  -3   9  -36.43   38.84   0
  -8  -4  13   33.81   38.55   0
  -8  -3  12  100.69   40.01   0
  -7  -1  11    9.34   42.30   0
  -5   0  13   31.49   46.62   0
  -1   2   5  852.67   26.56   0
  -1   2  12  287.56   42.54   0
   2   1   4 3876.07   36.64   0
   3   0  12   54.91   41.36   0
   4  -2  12    4.46   42.81   0
   4  -1  11  205.04   42.06   0
  -7  -3  14  -15.77   42.38   0
  -7  -2  13   74.34   39.53   0
  -3   2  11   72.98   39.70   0
  -2   2  12  -36.38   42.03   0
   0   2  12  -41.02   41.61   0
   1   2  11    4.43   39.04   0
   5  -2   9   20.53   42.01   0
  -8  -2  11   75.39   39.38   0
  -5   1   5  463.31   33.42   0
  -4   1  13  -85.80   48.22   0
  -3   2   6  604.35   30.44   0
  -2   2   5  493.38   25.54   0
   0   2   5   80.47   23.67   0
   1   2   6   67.26   25.96   0
   3  -2  14  117.97   45.91   0
   4   0   9   57.90   34.61   0
  -7  -1  12  140.63   41.57   0
  -5  -1  15  -46.30   47.25   0
  -1   2  13   -3.61   45.53   0
   4  -3  13   19.87   43.76   0
  -9  -3  10  -56.31   36.14   0
  -7   0   8   63.47   40.41   0
  -5  -2  16   58.29   45.96   0
  -5   0  14  150.27   45.74   0
  -4   2   9  575.83   33.71   0
  -4   2  10  109.29   40.04   0
  -3   2  12   60.87   40.29   0
  -2   2  13  354.62   43.64   0
   0   2  13  287.95   44.04   0
   1   1  14  -57.67   48.22   0
   1   2  12  329.27   39.23   0
   2  -1  15  -14.13   47.91   0
   2   2   9  295.45   34.51   0
   4   0  10  201.89   37.19   0
  -9  -4  12  -36.39   36.51   0
  -8  -3  13   11.16   37.60   0
  -8  -1   8  129.38   38.73   0
  -7   0   7   66.96   37.19   0
  -4   1   3  184.51   27.89   0
   0   1   2 1298.07   26.89   0
   2  -4  16   79.20   48.73   0
   2   2   8  477.61   31.28   0
   2   2  10  183.48   35.43   0
   3  -1  14  126.04   44.04   0
   3   0  13  255.18   45.81   0
   3   1  11   23.53   37.91   0
   4  -1  12  154.02   43.28   0
  -8  -2  12  -34.22   38.29   0
  -8  -1   6  234.58   38.02   0
  -8  -1   9   13.49   40.05   0
  -7  -2  14   59.62   40.86   0
  -6   0   3  355.11   33.69   0
  -4   1  14   78.37   48.39   0
  -4   2  11  249.60   40.46   0
  -3   2  13  129.89   46.30   0
   2  -3  16  -15.60   50.12   0
   3  -3  15   46.22   45.35   0
   4  -2  13  106.03   42.88   0
  -9  -3  11   51.96   35.97   0
  -7  -3  15  -90.44   39.31   0
  -7  -1  13   36.65   38.95   0
  -7   0   6  634.57   35.56   0
  -7   0  10  -40.20   39.91   0
  -6   1   8  -14.18   36.23   0
  -3   1  15  159.83   51.11   0
  -3   2   5  813.28   30.06   0
  -2   2  14   -9.61   51.75   0
  -1   2  14  444.42   47.96   0
   1   2  13   18.10   44.44   0
   2  -2  16  114.79   50.34   0
   2   2   7  415.71   27.74   0
   2   2  11  130.10   37.89   0
  -8  -1  10  116.59   41.46   0
  -6   1   7  424.95   36.66   0
  -6   1  10    7.65   39.77   0
  -5  -1  16  -58.54   47.15   0
  -5   0  15  -61.91   46.87   0
  -4   2  12  -31.51   42.14   0
  -1   3   9 1542.77   36.48   0
  -1   3  10   -9.84   35.52   0
   0   2  14  154.72   50.03   0
   1   1  15  223.48   52.82   0
   2   0  15   99.06   48.04   0
   3  -2  15   93.05   43.59   0
   3   1  12  249.07   39.40   0
  -8  -1   5   27.86   37.97   0
  -7   0  11   36.06   41.40   0
  -6   1  11   76.06   41.25   0
  -5   1   4   21.40   31.21   0
  -2   3   9   32.34   34.45   0
  -2   3  10 1116.82   37.83   0
  -1   2   4 1607.57   27.90   0
  -1   3   8  919.31   32.64   0
  -1   3  11   52.99   37.49   0
   0   3   9  445.24   33.77   0
   0   3  10  445.94   35.48   0
   0   3  11   58.49   37.21   0
   1  -2  17   59.93   51.95   0
   1   2   5 4328.90   33.79   0
   5  -1   8   41.35   39.30   0
  -8  -3  14   -6.35   35.02   0
  -8  -2  13   -8.35   38.68   0
  -8  -1  11   88.13   40.97   0
  -7   0   5   38.85   36.61   0
  -5  -2  17  -71.89   47.56   0
  -4   1  15   29.86   49.60   0
  -4   2  13  160.10   48.83   0
  -3   2  14   62.74   51.29   0
  -2   2   4   29.96   26.93   0
  -2   3  11  294.22   38.22   0
  -1   3  12   19.50   39.64   0
   1   2  14  120.62   49.10   0
   2  -1  16   34.38   45.39   0
   3   0  14   87.81   44.32   0
   4  -1  13  143.27   43.48   0
   5  -1   7  382.95   38.95   0
  -9  -3  12   68.48   36.41   0
  -7  -2  15   32.39   39.30   0
  -7  -1  14   49.45   41.06   0
  -7   0  12   81.86   41.23   0
  -6   1   6  250.59   34.13   0
  -5   1  14    9.56   45.42   0
  -3   1  16   71.57   53.91   0
  -2   3   8   78.30   32.05   0
  -2   3  12  372.41   40.79   0
  -1  -2  18  -97.45   49.81   0
   0   3   8  690.74   31.43   0
   0   3  12  181.33   40.71   0
   3  -1  15   -4.72   45.22   0
   3   1  13  198.99   42.56   0
  -9  -2  10   66.26   35.39   0
  -3   3  10  181.60   35.69   0
  -3   3  11  635.02   39.76   0
  -1   3   7  687.36   32.51   0
  -1   3  13  197.17   44.07   0
   0   2   4 3124.47   32.08   0
   0   2  15  100.89   54.10   0
   1   3  11  604.95   39.40   0
   2   2   6 1427.58   28.97   0
   4  -2  14   53.90   44.50   0
  -8  -1  12   23.09   37.74   0
  -5   0  16   85.16   48.21   0
  -4   2  14  100.11   50.74   0
  -3   2  15  171.27   51.23   0
  -3   3   9  620.21   34.86   0
  -2   3  13   -1.14   42.53   0
   0   3  13   92.88   43.18   0
   2  -3  17   12.09   47.80   0
   2   0  16    8.30   49.56   0
  -7   0  13  105.53   40.16   0
  -5  -1  17   62.98   47.13   0
  -5   1  15  117.00   46.01   0
  -5   2   7  480.60   34.42   0
  -4   0  17  168.78   46.12   0
  -4   1  16  123.30   51.88   0
  -3   3   8   99.64   35.00   0
  -3   3  12  119.50   39.29   0
  -2   3   7  110.74   30.59   0
   0   3   7 1000.35   29.86   0
   1   2  15   63.95   52.94   0
   1   3  12  297.38   38.01   0
   2  -2  17   49.08   50.49   0
   3  -3  16   54.60   45.56   0
   4   1   9  146.22   35.79   0
  -8  -2  14   98.58   37.08   0
  -3   3  13  155.61   45.98   0
  -2   3  14   67.97   48.63   0
  -1   3  14  182.35   45.30   0
   0   3  14   59.80   47.89   0
   1   3   8   91.76   29.93   0
   3  -2  16    9.68   44.63   0
   3   0  15   23.79   44.28   0
   4  -1  14    8.80   44.90   0
   4   0  13   13.55   43.25   0
  -7  -1  15   30.52   39.79   0
  -6   1   5  314.92   34.13   0
  -4  -1  18    8.35   42.41   0
  -4   2  15   92.91   51.62   0
  -3   1  17  137.04   54.99   0
   0   2  16  217.09   53.95   0
   1   3  13  150.47   42.26   0
   2  -1  17  -16.35   52.09   0
   4   1  11  192.20   38.51   0
  -8  -1  13   95.31   38.66   0
  -4   3  10  140.33   40.03   0
  -4   3  11   -6.42   42.68   0
  -3   0  18  119.05   50.05   0
  -3   2  16  153.79   54.40   0
   3  -1  16   65.01   45.39   0
  -8   0  10   39.89   40.86   0
  -7   0  14   15.50   40.46   0
  -7   1   9  -25.02   39.01   0
  -7   1  10   80.37   40.00   0
  -5   0  17  168.83   47.26   0
  -4   3  12  113.66   41.30   0
  -3   3   7  138.20   32.53   0
  -3   3  14  218.33   50.04   0
  -2   3  15  223.14   55.90   0
  -1   3   6  255.79   27.97   0
   0   3  15  101.06   58.07   0
   1  -1  18   68.89   52.75   0
   1   2  16  156.65   53.06   0
   1   3  14  142.81   46.63   0
   2   1  16  -26.77   48.29   0
   2   3  10  653.11   33.75   0
   2   3  11  307.62   35.33   0
   2   3  12  320.53   41.35   0
   4   1  12   -3.08   43.33   0
  -7   1  11  109.83   41.23   0
  -6   2  10   89.58   42.96   0
  -5   1  16   35.24   44.83   0
  -4   0  18   24.87   47.14   0
  -4   1  17   -0.11   48.37   0
  -4   3  13  123.41   48.90   0
  -2   3   6  682.77   31.48   0
  -1   1  18  113.86   55.89   0
  -1   2  17   44.47   59.41   0
   1   3   7   29.90   27.25   0
   2   0  17  127.28   48.15   0
   2   3   9   15.50   33.10   0
  -6   2  11  106.18   42.79   0
  -4   2  16  182.69   54.28   0
   0   2  17   50.47   58.26   0
   0   3   6  188.90   26.60   0
   3   1  15   36.86   45.85   0
  -3   1  18   30.49   51.86   0
  -3   2  17   -3.88   56.60   0
  -1   4  10  345.72   36.12   0
  -1   4  11  192.41   34.79   0
  -1   4  12  116.28   39.71   0
   0   1  18  162.10   53.96   0
   0   4  11  255.63   36.84   0
   0   4  12  168.91   39.61   0
   1   2   4 1050.04   26.70   0
   1   3  15   47.64   51.94   0
   0  -8 -10  -26.77   27.03   0
   0  -6  -6   22.82   22.00   0
   2  -9 -10  -19.47   31.77   0
   3 -10 -14   98.85   42.84   0
   3  -9 -20  -73.95   44.71   0
   4 -10 -14   38.67   46.53   0
   4  -8  -7    3.94   34.30   0
   5 -10 -16   98.31   46.50   0
   5 -10 -15   -5.63   51.85   0
   6  -1   2   10.58   34.92   0
   7  -9 -12   50.69   55.33   0
   8  -4  -2   57.14   44.58   0
   0  -9 -16    8.60   39.35   0
   1  -9 -11  -18.30   32.46   0
   2 -10 -14   44.44   43.60   0
   3 -10 -13   37.56   43.31   0
   3  -8  -7  -16.19   32.45   0
   4 -10 -13   39.21   43.03   0
   5 -10 -17   83.77   48.80   0
   5 -10 -14   97.06   50.66   0
   5  -8  -7   50.23   38.08   0
   6  -9 -10  -78.66   48.72   0
  10  -6  -8  -96.03   49.41   0
  10  -4  -4  -28.43   41.93   0
  11  -5  -8   44.86   46.43   0
  -1  -8 -16    4.34   34.94   0
   2  -9 -20   40.54   40.54   0
   2  -6  -4   -6.87   25.55   0
   3 -10 -18  -91.89   45.89   0
   3  -9  -9  -59.37   34.94   0
   4  -9  -9   -6.17   34.66   0
   5 -10 -13    6.31   48.60   0
   5  -7  -5  -13.60   37.57   0
   7  -9 -11  162.68   54.26   0
   9  -6  -6    4.08   44.12   0
   1  -8  -8  -36.71   28.29   0
   2 -10 -13  -42.58   41.08   0
   3 -10 -12  -26.79   42.60   0
   4 -10 -12  -84.36   44.34   0
   5  -9  -9  -56.52   44.53   0
   6 -10 -16   17.90   47.13   0
   6 -10 -15  -13.77   46.98   0
   6 -10 -14  -32.87   51.17   0
   6  -8  -7   55.29   46.68   0
   7  -6  -4  -59.35   42.30   0
   8  -9 -14  -53.79   48.53   0
   9  -7  -8   34.62   49.96   0
   1  -7  -6  -10.90   25.79   0
   2 -10 -18  -13.90   43.34   0
   2  -8  -7    1.20   29.01   0
   3 -10 -19  -24.27   45.58   0
   4 -10 -19  -60.55   47.77   0
   5 -10 -12   -2.28   47.09   0
   6 -10 -17  -26.31   45.78   0
   6 -10 -13   73.93   53.11   0
   7  -3   0  -30.06   35.42   0
   8  -9 -13   34.40   48.18   0
   8  -5  -3   15.95   44.61   0
   9  -5  -4    5.33   46.11   0
  -2  -7 -14   -7.95   34.43   0
  -2  -7 -13  -31.78   29.47   0
  -1  -6  -7   -7.02   23.56   0
   0  -9 -18   -6.95   38.95   0
   0  -8  -9  -21.04   25.74   0
   1  -9 -10  -11.66   29.34   0
   2 -10 -12  -42.50   39.22   0
   3  -3   0   38.43   25.18   0
   4 -10 -11  -12.26   46.11   0
   6  -9  -9   81.73   45.28   0
   7  -9 -10   18.71   52.02   0
   8  -9 -12  -38.52   51.01   0
  10  -7 -10   23.48   45.26   0
  11  -5  -7   13.58   46.04   0
   1 -10 -17  -43.24   39.20   0
   2 -10 -19   98.32   45.22   0
   3 -10 -11  -14.72   41.86   0
   4  -9  -8   38.45   35.73   0
   4  -6  -3    4.77   29.00   0
   5 -10 -11  -42.87   46.57   0
   6 -10 -12   14.21   55.36   0
  10  -6  -7   20.04   45.18   0
   1 -10 -18  -39.87   42.59   0
   2  -7  -5   16.14   25.77   0
   3  -9  -8  -79.33   34.14   0
   5  -9  -8  -18.55   44.31   0
   5  -8  -6  -23.14   39.72   0
   7 -10 -15  -41.87   47.04   0
   7 -10 -14  102.54   50.09   0
   8  -7  -6   92.53   46.29   0
   2 -10 -11  -47.82   34.74   0
   3  -8  -6   22.56   33.18   0
   4 -11 -16   64.66   47.16   0
   4 -11 -15   18.73   51.03   0
   5   0   3  522.05   37.63   0
   7 -10 -13   71.38   48.51   0
   8  -9 -11   59.56   50.98   0
   9  -7  -7  -13.75   45.34   0
  10  -7  -9   14.33   46.43   0
   0  -3  -2    9.74   17.68   0
   1 -10 -12  -39.28   35.43   0
   1  -8  -7  -24.46   29.95   0
   2 -10 -20  -41.94   44.20   0
   3 -10 -10   11.20   37.03   0
   4 -11 -14    4.79   49.30   0
   4 -10 -10   -6.60   45.69   0
   5 -11 -16   36.33   45.78   0
   5 -11 -15  -82.85   50.27   0
   6 -10 -11   -9.64   52.15   0
   6  -9  -8  -96.43   49.31   0
   6  -8  -6  -57.67   47.40   0
   7  -9  -9   10.44   47.67   0
   8  -6  -4   14.97   45.62   0
   9  -4  -2  -30.46   43.92   0
  10  -4  -3  -68.09   44.83   0
  -1  -9 -15  -31.31   37.37   0
   0 -10 -15   31.99   43.71   0
   3 -11 -18   -6.75   47.28   0
   5 -11 -17  -28.47   49.45   0
   5 -11 -14  -62.61   52.26   0
   7 -10 -12  -44.46   47.23   0
   9  -8  -9   45.75   48.81   0
  -1  -9 -16  -18.59   38.29   0
   0 -10 -16  -34.01   38.67   0
   0 -10 -14  -25.77   38.91   0
   0  -8  -8   -6.14   27.28   0
   2 -11 -14   -6.99   43.92   0
   2  -8  -6    2.24   28.77   0
   3 -11 -13  121.43   43.34   0
   4 -11 -13  -12.62   47.71   0
   7  -6  -3   33.34   44.20   0
  10  -6  -6   47.19   46.09   0
  -1  -9 -13  -12.56   35.95   0
   4  -9  -7  -17.02   35.34   0
   5 -11 -13   17.73   50.41   0
   5  -9  -7   15.70   45.91   0
   6 -11 -16  -40.48   43.77   0
   6 -11 -15  -39.04   49.50   0
   6 -10 -10  -34.39   50.67   0
   7 -10 -11   -7.27   51.11   0
   8  -8  -7  -46.22   47.26   0
   9  -5  -3   28.98   45.68   0
  10  -7  -8  111.99   46.96   0
   2 -11 -13  -55.70   43.80   0
   2  -4  -1   10.10   20.18   0
   3 -11 -12  -50.54   45.92   0
   3 -10  -9    1.40   37.40   0
   4 -11 -12   -6.76   46.68   0
   5 -10  -9  -11.86   48.88   0
   6 -11 -14    5.13   50.71   0
   8 -10 -13  -48.94   50.65   0
   9  -7  -6    4.69   46.43   0
  10  -5  -4  -38.29   42.55   0
   0 -10 -18    0.50   39.07   0
   1 -11 -17   59.90   43.37   0
   1 -11 -16   58.32   44.36   0
   2 -11 -19   35.33   48.22   0
   4  -8  -5   38.46   33.68   0
   5 -11 -12  -33.22   49.07   0
   6 -11 -13  -30.98   50.72   0
   8  -5  -2  -72.39   42.16   0
   9  -8  -8   73.29   49.51   0
  -3  -5 -11   -3.08   33.55   0
  -2  -8 -15   54.61   37.62   0
  -2  -7 -10   19.82   28.96   0
   2 -11 -12   55.18   43.48   0
   6  -9  -7   12.24   47.28   0
   7 -10 -10   25.19   49.95   0
   8 -10 -12  -71.68   48.04   0
   1 -11 -18   62.84   44.08   0
   2  -9  -7   11.54   30.68   0
   2  -7  -4  372.11   28.29   0
   2  -3   0 4221.86   31.69   0
   3 -11 -11   14.22   46.02   0
   4 -11 -11   -4.23   46.46   0
   5  -3   1  446.97   32.66   0
   6 -11 -12  -10.08   50.69   0
   6 -10  -9  115.53   47.14   0
   6  -3   1   54.38   34.40   0
   9  -6  -4  -43.11   44.08   0
  10  -7  -7  -57.45   47.20   0
  11  -6  -7  -56.11   40.82   0
   1  -8  -6  -11.21   27.07   0
   4 -12 -16   58.58   48.19   0
   4 -12 -15   42.60   48.65   0
   4 -10  -8  -21.09   41.37   0
   8  -6  -3  -43.18   42.42   0
  10  -6  -5   51.24   42.83   0
  -3  -4  -9    4.39   34.71   0
  -2  -8 -12   28.46   32.05   0
   2 -11 -11  -87.01   42.91   0
   3 -12 -15  -77.09   45.78   0
   5 -12 -17    7.43   48.51   0
   5 -12 -16  -69.00   49.43   0
   5 -10  -8    9.01   47.27   0
   5  -9  -6   -2.02   42.07   0
   6  -6  -2  -16.61   37.83   0
   7 -11 -13  -23.06   45.14   0
   8  -8  -6   16.81   44.37   0
  -1  -7  -7   42.27   26.18   0
  -1  -3  -3   14.56   17.54   0
   2  -8  -5  323.53   29.36   0
   3 -12 -18  -35.87   47.10   0
   3 -12 -14   12.34   48.15   0
   4 -12 -14   20.51   49.45   0
   4 -11 -10   18.94   47.67   0
   4  -7  -3   83.70   31.54   0
   7 -10  -9   48.99   45.55   0
   7  -4   0  -11.29   36.23   0
   9  -8  -7  -13.70   46.77   0
   9  -7  -5   43.04   46.69   0
   9  -4  -1  -66.93   45.45   0
  -1 -10 -16   24.04   40.32   0
  -1 -10 -15   -6.62   38.51   0
   0 -11 -16   34.17   40.85   0
   0 -11 -15  125.87   43.82   0
   2 -12 -17   12.60   45.61   0
   3  -6  -2  767.78   29.13   0
   3  -5  -1  738.55   26.04   0
   4 -12 -13   35.16   53.03   0
   5 -12 -14  -89.11   48.05   0
   6 -10  -8  -71.93   47.35   0
   6  -9  -6 -112.54   47.33   0
   7 -11 -12  -51.80   44.01   0
   8  -7  -4    5.24   43.86   0
   9  -9  -9   63.40   48.46   0
  -1 -10 -14   27.57   39.05   0
   0 -11 -17  -66.94   40.98   0
   2 -12 -18   29.39   46.79   0
   2 -12 -14  -17.59   43.46   0
   2 -10  -8  119.08   33.04   0
   5 -12 -13  -30.67   49.11   0
   6 -12 -15   -2.55   45.29   0
   7  -6  -2  183.93   44.11   0
   9  -5  -2  -14.22   42.52   0
  10  -7  -6  -68.85   46.10   0
  10  -5  -3  -68.35   41.42   0
  -1 -10 -17    5.76   38.06   0
   1  -9  -7  255.46   29.67   0
   2 -11 -10   28.41   37.03   0
   3  -7  -3  679.01   27.97   0
   3  -4   0  222.52   25.09   0
   4  -8  -4  587.78   33.89   0
   6 -12 -14  -67.58   47.11   0
  10  -8  -8   37.17   43.91   0
   0 -11 -18  -15.21   37.32   0
   0  -9  -8  270.13   29.81   0
   0  -6  -4   94.83   22.90   0
   1  -6  -3   33.82   23.14   0
   2 -12 -19  -19.76   45.60   0
   2  -9  -6   81.72   31.19   0
   3 -12 -12   16.14   42.89   0
   4 -11  -9  152.16   46.90   0
   4 -10  -7  120.21   39.47   0
   5 -10  -7   22.25   46.02   0
   7  -7  -3   61.85   44.08   0
   7  -2   2  241.04   39.00   0
   8  -9  -7   94.03   45.62   0
   9  -6  -3   50.14   43.85   0
   0  -7  -5 1047.97   27.31   0
   0  -5  -3  140.59   20.79   0
   1 -12 -17  -16.77   41.94   0
   1 -12 -16   -7.85   40.96   0
   1  -7  -4 1543.04   28.37   0
   1  -5  -2  148.63   20.21   0
   3 -11  -9   67.68   40.24   0
   3 -10  -7  112.51   35.18   0
   3  -8  -4  199.57   31.33   0
   5 -12 -12   13.48   47.07   0
   6 -12 -13  -85.35   49.35   0
   8  -5  -1  164.37   45.49   0
   8  -4   0  243.02   44.40   0
   9  -9  -8   -8.46   48.11   0
   9  -8  -6    7.58   46.93   0
  10  -6  -4  -45.75   40.97   0
  -1 -10 -12   49.53   34.33   0
   1 -12 -18  -65.91   41.80   0
   4  -9  -5  196.52   35.36   0
   5  -9  -5  108.40   41.77   0
   6 -10  -7   79.49   46.91   0
   7 -11 -10  -54.00   49.21   0
  -2  -9 -14    7.71   35.87   0
   1 -10  -8  346.57   30.52   0
   1  -8  -5 1392.59   28.73   0
   2 -12 -12   15.59   41.23   0
   3 -12 -11   84.86   43.24   0
   6 -12 -12   55.91   48.28   0
   7  -8  -4   50.29   45.06   0
   8  -6  -2   37.05   42.97   0
   9  -7  -4   10.54   44.35   0
  10  -8  -7   -3.36   47.67   0
   0  -8  -6 1418.29   27.82   0
   1 -11 -10  122.62   34.65   0
   1  -4  -1  628.93   20.24   0
   2 -11  -9  288.22   34.65   0
   2 -10  -7  383.47   33.18   0
   3  -9  -5  478.76   33.22   0
   4 -13 -16    2.87   45.89   0
   4 -13 -15   38.96   42.76   0
  10  -7  -5  -45.59   46.13   0
  -2  -8 -10  108.86   27.86   0
  -1  -6  -5  650.31   22.73   0
   0 -10  -9  159.04   31.93   0
   0  -4  -2   41.64   18.49   0
   1 -12 -19  -50.90   39.80   0
   2  -8  -4  251.98   29.83   0
   3 -13 -18   19.39   44.49   0
   4 -13 -14    9.73   45.97   0
   5 -13 -15   71.28   43.67   0
   5 -11  -8  168.01   46.76   0
   5  -5   0 1073.88   34.64   0
   6 -12 -11    1.92   49.21   0
   6  -6  -1  317.73   38.26   0
   6  -5   0   89.71   37.66   0
   8  -9  -6   82.91   45.61   0
   8  -7  -3   90.56   44.49   0
   9  -9  -7  -13.34   49.91   0
  -3  -6 -11  405.49   32.18   0
  -1  -7  -6  165.08   24.58   0
   0 -11 -11   68.77   36.50   0
   1  -9  -6   77.72   29.24   0
   2 -13 -17   77.28   43.57   0
   3 -13 -14  151.19   44.91   0
   3 -11  -8  183.74   37.17   0
   4 -12 -10  118.32   47.38   0
   4 -10  -6  -30.35   40.93   0
   5 -13 -14   49.57   47.75   0
   5 -10  -6   38.08   46.19   0
   6  -7  -2  157.10   39.98   0
   7  -9  -5  107.69   47.15   0
   9 -10  -9   47.08   47.60   0
  -2  -9 -12  142.71   30.55   0
  -1 -11 -16   31.35   38.24   0
  -1 -11 -15  -40.39   36.69   0
  -1  -5  -4    5.52   20.42   0
   0 -12 -16   83.51   37.92   0
   0 -12 -15  145.84   41.77   0
   0  -9  -7  203.91   28.59   0
   1 -12 -12  208.69   40.78   0
   2 -13 -18  -53.57   42.45   0
   3 -13 -13   58.76   49.74   0
   3 -12 -10  112.50   44.62   0
   3 -10  -6  263.58   35.33   0
   4  -8  -3   42.61   37.15   0
   5 -12 -10   74.33   52.40   0
   5  -4   1   72.07   32.35   0
   6 -11  -8  -30.48   49.02   0
   6  -4   1  218.21   36.71   0
   8  -8  -4  137.67   44.95   0
   9  -8  -5   99.62   46.19   0
  -1  -8  -7  224.36   26.68   0
   0 -12 -17   -9.10   37.95   0
   0 -12 -14   26.42   41.69   0
   1 -11  -9   -6.27   34.48   0
   2 -13 -14   38.18   40.68   0
   2  -9  -5   55.90   30.14   0
   5 -13 -13  -22.70   48.86   0
   5  -1   3   57.07   32.81   0
   6 -13 -14  -26.37   45.87   0
   7 -12 -11   98.93   50.11   0
   7  -6  -1  112.70   45.91   0
   7  -5   0  211.97   44.00   0
   9  -5  -1  -29.95   45.40   0
  10  -8  -6   40.83   48.49   0
   0 -12 -18  -22.89   37.17   0
   2 -13 -19  -42.88   42.26   0
   2 -12 -10   29.05   41.96   0
   2 -11  -8  114.87   34.21   0
   2  -4   0 1523.00   23.53   0
   3  -7  -2    9.53   31.28   0
   7  -7  -2   -3.67   46.23   0
   9  -6  -2  -38.11   44.88   0
  -3  -5  -9  579.86   30.45   0
  -2  -9 -11   18.07   30.07   0
   0 -11 -10   23.22   35.53   0
   1 -13 -17  -20.19   41.60   0
   1 -13 -16    1.33   40.69   0
   1 -12 -11  101.15   39.79   0
   2 -13 -13  148.31   41.88   0
   3 -13 -12   -5.99   48.11   0
   3  -8  -3    1.53   29.68   0
   3  -6  -1   36.85   26.84   0
   4 -12  -9  -31.75   46.80   0
   4 -11  -7   35.74   46.03   0
   4  -9  -4   79.41   38.02   0
   5 -13 -12   67.45   48.86   0
   5 -12  -9   27.27   53.85   0
   5 -11  -7  127.14   49.03   0
   0 -10  -8  467.20   28.86   0
   1 -13 -18  -11.53   42.21   0
   2 -10  -6  -51.38   33.17   0
   3 -11  -7  103.21   35.95   0
   7  -8  -3   -4.60   48.53   0
   8  -9  -5   81.43   43.79   0
   9 -10  -8  114.54   45.92   0
   9  -9  -6   47.91   46.34   0
   9  -7  -3  -12.82   44.83   0
  -3  -7 -12   49.89   32.67   0
  -3  -6 -10   20.11   29.08   0
  -2 -10 -15  203.88   36.32   0
  -2 -10 -14  156.17   35.86   0
  -1 -11 -12  120.26   37.26   0
  -1  -9  -8   -8.35   27.65   0
   0  -7  -4 1540.98   27.82   0
   1  -8  -4  115.57   29.81   0
   1  -7  -3  652.05   26.38   0
   1  -3   0 2777.18   27.23   0
   2 -13 -12  198.34   42.53   0
   3  -9  -4  370.07   32.48   0
   3  -5   0 1106.88   27.88   0
   4 -13 -11   16.23   48.78   0
   5 -10  -5   15.66   47.86   0
   6 -13 -12    9.16   46.27   0
   6 -12  -9  -35.15   51.61   0
   6 -11  -7  141.03   46.41   0
   7 -12 -10   16.31   49.78   0
  -1  -4  -3 4275.14   30.42   0
   0  -8  -5  109.65   26.15   0
   1 -13 -19    8.74   39.95   0
   1  -6  -2  449.80   25.56   0
   3 -14 -15   -0.65   47.55   0
   3 -13 -11   58.19   45.81   0
   4 -14 -15   92.88   46.07   0
   5 -13 -11   92.03   50.46   0
   8  -6  -1  189.85   45.48   0
   8  -5   0   42.29   46.06   0
   0  -6  -3  203.78   22.91   0
   1 -12 -10   86.78   38.86   0
   1 -11  -8  260.30   32.83   0
   1  -9  -5   15.31   27.76   0
   2 -12  -9   -3.06   41.42   0
   2 -11  -7  138.46   36.60   0
   7  -9  -4  110.82   48.35   0
   8  -7  -2  111.77   49.21   0
   9  -8  -4    6.34   44.09   0
  -2  -9 -10  189.22   27.90   0
   0  -9  -6  354.53   29.03   0
   0  -3  -1 1243.55   21.14   0
   2 -14 -18   44.27   44.28   0
   2 -13 -11   -2.10   41.81   0
   2  -8  -3  451.50   30.49   0
   2  -7  -2  101.11   28.70   0
   3 -14 -14   31.01   42.78   0
   5 -14 -14   -1.08   44.82   0
   5 -12  -8   45.67   49.05   0
   6 -13 -11  -19.47   45.38   0
   8 -11  -8   18.03   47.24   0
   8 -10  -6  -13.49   48.01   0
  10  -8  -5   -0.45   44.33   0
  -2 -10 -12  300.73   33.96   0
  -1 -12 -16   92.65   37.36   0
  -1 -12 -15   39.32   36.53   0
   0 -13 -17   -9.56   38.05   0
   0 -13 -16   66.76   37.38   0
   0 -13 -15  219.23   38.91   0
   0 -12 -11  178.69   40.63   0
   1 -10  -6  154.30   32.42   0
   2  -9  -4   54.78   30.62   0
   3 -13 -10   -9.22   47.94   0
   4 -14 -13  -45.78   46.69   0
   4 -11  -6  -22.32   44.85   0
   5 -13 -10  -31.23   51.44   0
   5 -11  -6  112.83   49.28   0
   8  -8  -3  -15.61   46.98   0
   9 -10  -7   49.98   46.59   0
  -1 -12 -17   49.16   36.59   0
  -1 -12 -14  123.23   39.25   0
  -1  -8  -6  132.57   27.40   0
  -1  -7  -5  236.06   23.44   0
   0 -13 -14    0.61   40.97   0
   1  -5  -1   21.25   21.36   0
   2 -14 -14  126.06   40.06   0
   2  -3   1  116.99   24.24   0
   3 -14 -13   51.23   47.65   0
   4  -8  -2  234.99   38.09   0
   5 -14 -13  145.13   46.56   0
   5  -6   0   61.34   37.95   0
   6 -12  -8   94.60   47.11   0
   7 -10  -5   13.44   48.11   0
  -3  -8 -13   99.01   32.95   0
   0  -5  -2   96.43   20.47   0
   1 -14 -17  -31.49   42.97   0
   1 -14 -16    5.98   40.75   0
   1 -12  -9  176.60   36.64   0
   3 -11  -6   84.05   37.08   0
   4  -9  -3  482.59   40.73   0
   4  -3   2  765.44   30.26   0
   4  -1   3 1320.34   35.33   0
   6 -13 -10    5.09   45.73   0
   6  -8  -2    8.62   42.65   0
   6  -6   0   -0.16   41.86   0
   7 -13 -11   34.58   46.50   0
   9  -9  -5  -88.55   48.55   0
  -1 -12 -13  -24.23   37.82   0
  -1  -9  -7  596.98   27.54   0
  -1  -6  -4 1434.04   24.16   0
   1 -14 -18   -1.59   42.81   0
   1 -13 -11  285.36   40.85   0
   2 -14 -13   11.83   44.07   0
   2 -13 -10   91.38   43.28   0
   2 -12  -8  131.89   37.66   0
   3 -14 -12  -15.27   48.31   0
   4 -14 -12  120.69   48.02   0
   5 -14 -12  -92.99   50.30   0
   6  -9  -3   -9.48   46.51   0
   8  -9  -4  102.17   47.16   0
  10  -9  -6  -58.85   43.11   0
  -3  -6  -9 1222.46   30.55   0
  -2 -11 -15  -60.72   35.20   0
   0 -12 -10  100.95   36.19   0
   1 -11  -7  181.34   32.95   0
   4 -12  -7   66.29   48.58   0
   4 -10  -4    1.90   43.15   0
   5 -12  -7  109.66   50.97   0
   5  -5   1   49.89   34.50   0
   6  -5   1  260.23   39.92   0
   7  -7  -1  154.05   46.41   0
   8 -12  -9   45.61   49.07   0
   8 -11  -7  132.43   51.72   0
  -3  -8 -12  315.63   31.25   0
  -3  -7 -10  191.26   26.86   0
  -2 -11 -16  232.54   35.37   0
  -2 -11 -14   71.71   35.88   0
  -1 -10  -8  194.68   29.35   0
   2 -14 -12   29.63   47.42   0
   2 -11  -6  161.03   34.51   0
   2  -5   0   28.70   24.19   0
   3 -13  -9  108.32   46.54   0
   3  -8  -2   64.74   30.49   0
   7 -11  -6  -99.78   51.17   0
   7  -8  -2   15.00   46.53   0
   7  -6   0  147.82   45.26   0
   9 -10  -6  117.31   50.15   0
   9  -7  -2   23.29   46.19   0
  -2 -11 -13  -16.70   35.11   0
   1 -14 -13  103.83   41.14   0
   3 -15 -15    8.91   46.68   0
   3 -14 -11   20.25   52.04   0
   4 -15 -15  -76.66   45.54   0
   5 -14 -11  -21.90   51.35   0
   6 -13  -9  -75.95   52.61   0
   6  -2   3  117.63   40.56   0
   7  -9  -3   69.90   48.70   0
   8 -10  -5   72.81   50.07   0
  -3  -5  -8  206.71   26.78   0
   0  -9  -5  667.53   28.72   0
   0  -8  -4 1403.96   28.91   0
   1 -12  -8   82.05   33.77   0
   1  -9  -4  566.91   29.98   0
   1  -8  -3  942.13   28.54   0
   2 -15 -17   87.94   41.60   0
   2 -13  -9  -75.10   44.19   0
   3 -10  -4  169.46   34.97   0
   4 -15 -14   79.31   46.39   0
   4 -11  -5   23.52   47.53   0
   5 -11  -5  124.48   49.60   0
   7  -5   1    3.74   46.43   0
   9  -8  -3   27.37   45.10   0
  -3  -8 -11   19.81   28.12   0
  -2 -10 -10  214.62   29.61   0
  -1 -13 -16  100.59   36.54   0
  -1 -13 -15  -92.05   37.37   0
  -1  -5  -3 2570.66   25.12   0
   0 -14 -17   70.03   39.50   0
   0 -14 -16   11.90   39.05   0
   0  -7  -3   52.82   24.65   0
   1 -10  -5   13.30   30.13   0
   1  -7  -2   23.42   27.50   0
   2 -12  -7   51.40   39.03   0
   3 -15 -14  -10.76   42.85   0
   3  -6   0  382.20   31.22   0
   5  -2   3  143.84   36.54   0
   6 -14 -11  -95.63   52.85   0
  -2 -11 -12  138.16   36.50   0
  -1 -13 -17  -28.58   34.70   0
  -1 -13 -14  231.41   40.96   0
  -1 -11  -9  -26.47   32.52   0
   0 -14 -15   30.77   39.18   0
   0 -13 -11   35.07   43.33   0
   0 -12  -9  222.68   36.53   0
   0 -10  -6  101.37   29.96   0
   1  -4   0  291.23   21.31   0
   4 -15 -13   75.31   49.77   0
   4 -14 -10   62.53   54.07   0
   4 -13  -8   78.29   49.92   0
   7 -10  -4  130.16   46.16   0
   8 -12  -8    9.58   47.38   0
   8  -7  -1   48.85   47.77   0
   9  -9  -4   76.32   47.54   0
  -3  -9 -13   23.84   32.58   0
   0  -4  -1   15.58   19.06   0
   1 -11  -6  163.01   33.00   0
   2 -15 -14   17.33   44.88   0
   2  -9  -3  411.97   32.03   0
   2  -8  -2   89.30   31.58   0
   3 -15 -13   40.29   43.58   0
   3 -14 -10   76.94   47.75   0
   3 -13  -8  137.27   45.06   0
   5 -14 -10   26.85   47.70   0
   5  -4   2  376.00   36.75   0
   8 -11  -6   61.32   51.48   0
   8  -6   0  138.08   49.07   0
  -3  -9 -12   77.93   30.66   0
  -3  -7  -9  139.93   26.38   0
  -1 -13 -13   81.39   39.34   0
  -1  -9  -6  161.83   28.03   0
  -1  -8  -5  325.29   26.64   0
  -1  -3  -2 1528.19   22.92   0
   0 -11  -7  215.35   31.47   0
   1 -15 -18  -18.95   41.05   0
   1 -15 -17   98.42   40.10   0
   1 -15 -16   55.48   43.56   0
   1 -13  -9   79.14   44.14   0
   2 -10  -4   65.67   33.75   0
   5 -12  -6  -13.47   48.41   0
   8  -9  -3  106.65   47.91   0
  -3  -8 -10  160.76   27.99   0
  -2 -12 -16   69.66   36.14   0
  -2 -12 -15   21.82   35.65   0
  -2 -12 -14  -40.09   36.13   0
  -2 -11 -11  325.83   31.83   0
  -1  -7  -4  770.71   26.98   0
   0  -6  -2  393.11   23.76   0
   1 -14 -11  109.72   43.98   0
   1  -6  -1  637.96   25.42   0
   2 -15 -13   25.02   43.00   0
   2 -13  -8  203.59   47.30   0
   2 -11  -5   79.69   36.96   0
   2  -7  -1   64.41   29.79   0
   3 -15 -12    1.32   50.31   0
   3   0   3  159.51   33.87   0
   4 -15 -12   39.63   48.90   0
   6 -14 -10   24.72   54.92   0
   7 -11  -5   31.48   48.04   0
   9 -10  -5   -0.70   50.63   0
  -3  -6  -8   11.72   23.89   0
   1 -12  -7   83.30   34.12   0
   4 -10  -3  238.02   44.85   0
   5 -15 -12  -16.13   45.99   0
   6  -9  -2   11.36   49.57   0
   6  -8  -1  116.49   47.67   0
  -2 -12 -13  150.17   36.36   0
  -1 -11  -8  302.38   35.48   0
   2 -15 -12   19.46   49.28   0
   3 -14  -9  -24.37   51.09   0
   4 -14  -9   41.52   51.97   0
   4 -13  -7   73.61   51.72   0
   5 -14  -9  135.28   51.23   0
   6  -7   0  168.10   48.12   0
   8 -12  -7   28.35   50.13   0
   8 -10  -4  103.24   48.48   0
  -3 -10 -14  114.59   35.49   0
  -3  -9 -11  194.52   28.71   0
   2 -12  -6   70.12   37.46   0
   3 -10  -3   55.75   40.30   0
   3  -9  -2  231.43   38.06   0
   4 -15 -11  -60.90   49.58   0
   4  -4   2   25.93   32.04   0
  -2 -12 -12   62.86   38.58   0
  -2  -4  -4 2467.83   27.11   0
  -1 -14 -17   86.21   36.43   0
  -1 -14 -16   69.25   36.80   0
   0 -15 -17   14.28   41.02   0
   0 -15 -16   90.96   43.18   0
   1 -14 -10   76.14   41.35   0
   2  -6   0  673.74   28.32   0
   3 -15 -11  -23.91   48.49   0
   3  -8  -1  218.65   33.60   0
   5 -15 -11    3.36   45.35   0
   5  -6   1   87.99   38.27   0
   6 -11  -4  207.11   51.60   0
   7 -12  -6   35.15   51.39   0
   7  -9  -2  131.55   46.90   0
   7  -8  -1   42.61   48.75   0
  -3  -4  -7  492.19   29.38   0
  -1 -14 -14  -35.93   40.38   0
  -1 -12  -9  127.33   36.72   0
  -1  -6  -3  420.82   22.74   0
   1 -13  -8   33.53   42.46   0
   1 -10  -4 1040.67   32.20   0
   1  -9  -3  -36.82   29.42   0
   2 -14  -9  256.05   45.05   0
   3 -11  -4    1.76   41.77   0
   4 -12  -5  -32.45   49.98   0
   6  -6   1   86.27   42.30   0
   7 -10  -3   70.42   48.90   0
   7  -7   0   56.32   50.08   0
   8 -11  -5  -27.28   50.90   0
  -3 -10 -12   87.89   33.28   0
  -3  -8  -9   24.47   26.69   0
  -2  -8  -6  461.51   26.05   0
  -1  -4  -2  305.59   20.33   0
   0 -11  -6  103.53   32.56   0
   0  -8  -3   42.38   27.56   0
   1 -15 -12  202.07   43.51   0
   1 -11  -5  141.26   34.01   0
   1  -8  -2  295.79   29.02   0
   2 -15 -11   41.44   47.96   0
   2 -13  -7  120.73   46.44   0
   4 -14  -8   34.84   55.96   0
  -3  -9 -10    2.92   28.10   0
  -3  -7  -8  173.09   25.77   0
  -2 -13 -16  -21.58   35.87   0
  -2 -13 -15  110.60   37.36   0
  -1 -14 -13   45.89   40.66   0
  -1  -9  -5  724.91   28.77   0
   1 -16 -17   25.65   40.80   0
   1 -16 -16   23.52   43.06   0
   1  -5   0  892.82   24.23   0
   3 -16 -13   -3.23   43.31   0
   3 -14  -8  114.31   52.13   0
   4  -6   1  -21.01   33.46   0
   5 -14  -8  -17.91   53.02   0
   7  -6   1  199.85   50.09   0
  -2 -12 -11  149.25   34.81   0
  -1 -11  -7  135.50   32.38   0
   0 -12  -7   92.62   33.50   0
   1 -14  -9   72.09   44.58   0
   1 -12  -6  -18.13   34.94   0
   2 -11  -4  489.91   37.79   0
   2 -10  -3  137.83   33.46   0
   4 -13  -6   16.25   51.84   0
   5 -15 -10  -88.43   49.98   0
   6  -3   3  120.45   42.42   0
   7 -13  -7    2.65   50.67   0
   7 -11  -4   43.45   50.55   0
  -3 -11 -14   66.26   35.86   0
  -3 -10 -11  215.48   30.42   0
  -2 -13 -13  240.45   39.08   0
  -2  -7  -5  588.08   23.93   0
  -1  -8  -4  111.65   26.21   0
   0  -7  -2  960.37   26.96   0
   1 -15 -11    6.11   44.31   0
   2 -16 -13  -10.47   43.11   0
   2 -15 -10   -5.71   51.86   0
   8 -12  -6   88.62   50.00   0
   8  -9  -2   -7.08   48.80   0
   8  -8  -1  -11.20   48.48   0
  -3 -11 -13   79.37   35.83   0
  -2  -5  -4 1402.39   24.30   0
  -1 -12  -8  106.96   38.54   0
   0 -14 -10   27.64   41.14   0
   0 -13  -8  133.60   42.00   0
   0  -2   0 2765.61   28.27   0
   1 -13  -7   61.25   40.76   0
   1  -7  -1   29.02   26.44   0
   2 -14  -8  -53.09   45.46   0
   2 -12  -5  187.88   39.49   0
   2  -8  -1  145.78   29.56   0
   3 -16 -12  101.63   47.44   0
   5  -9  -1  -10.97   45.45   0
   5  -5   2  101.83   38.48   0
   8  -7   0  199.85   48.77   0
  -1 -15 -16    4.62   37.94   0
   2 -16 -12  -29.03   45.34   0
   2  -5   1  421.82   26.97   0
   7 -12  -5  -31.26   55.64   0
   8 -10  -3    1.98   50.09   0
  -3 -11 -12  112.69   33.82   0
  -3  -9  -9  127.81   26.60   0
  -3  -8  -8  460.72   27.65   0
  -2 -13 -12  291.48   38.99   0
  -1 -15 -15   49.84   37.86   0
  -1  -7  -3 2235.34   28.53   0
   0 -16 -17   35.82   41.23   0
   0 -16 -16   48.28   40.82   0
   1  -3   1 8026.33   39.13   0
   2 -13  -6   88.80   45.64   0
   4 -14  -7   69.29   55.89   0
   5 -15  -9   38.14   54.46   0
   5  -8   0  271.31   44.38   0
   6 -10  -2   10.74   50.96   0
   6  -9  -1  250.62   49.11   0
  -3 -10 -10   18.26   29.14   0
  -2 -10  -7  141.62   29.33   0
  -2  -9  -6  218.09   27.99   0
  -1 -15 -14   63.26   38.12   0
  -1 -13  -9  193.51   41.38   0
  -1  -5  -2 2319.86   25.19   0
   0 -11  -5    2.95   32.04   0
   0 -10  -4  166.95   29.86   0
   1 -14  -8  172.02   45.69   0
   3 -10  -2  113.20   41.72   0
   3  -1   3  172.68   28.15   0
   4 -16 -11  -63.93   48.84   0
   4 -12  -4  160.86   51.39   0
   5 -14  -7  -13.60   53.99   0
   6 -11  -3   13.21   49.81   0
   6  -8   0  133.64   47.96   0
   8 -11  -4   81.27   52.72   0
  -2 -14 -16   91.57   35.80   0
  -2 -14 -15    7.97   36.55   0
   0 -15 -11  105.24   43.93   0
   0 -14  -9   30.16   42.97   0
   0 -12  -6  237.43   33.85   0
   0  -9  -3  143.88   28.50   0
   0  -3   0 1820.10   24.44   0
   1 -11  -4   49.26   34.45   0
   1 -10  -3  649.09   32.93   0
   2  -7   0  771.89   29.85   0
   3 -12  -4  249.76   48.84   0
   3  -9  -1   10.30   39.52   0
   4  -5   2  268.58   33.63   0
   7 -13  -6   86.15   51.14   0
  -3 -12 -14   62.77   35.41   0
  -3 -11 -11    2.09   35.70   0
  -3  -7  -7   11.55   24.50   0
  -2 -14 -14  141.61   37.67   0
  -2 -13 -11   23.22   37.30   0
  -2  -6  -4  723.21   23.54   0
  -1 -15 -13  -13.73   40.76   0
  -1 -10  -5   19.26   30.67   0
   0  -6  -1   31.44   23.71   0
   1 -12  -5  225.24   35.45   0
   1  -9  -2  637.25   31.95   0
   2 -16 -11   58.47   46.29   0
   4 -13  -5   73.15   50.86   0
   5  -7   1  152.72   42.93   0
   6 -12  -4   75.58   49.26   0
   7 -10  -2  -11.41   50.08   0
   7  -9  -1   40.81   50.60   0
  -2  -8  -5   91.00   24.51   0
  -1 -12  -7  442.32   33.55   0
  -1  -9  -4  187.40   29.14   0
   0 -13  -7  108.90   38.20   0
   3 -13  -5  -37.34   49.08   0
   4 -15  -8  174.63   51.51   0
   6  -7   1   28.36   45.38   0
   7 -11  -3   73.37   51.96   0
   7  -8   0  164.88   49.56   0
   8 -12  -5  -36.44   49.70   0
  -3 -12 -13   48.94   34.93   0
  -1 -14 -10  250.50   42.55   0
   1 -15  -9   32.92   45.07   0
   2 -10  -2   44.88   36.61   0
   4  -7   1    9.75   37.44   0
   5 -15  -8   46.79   53.73   0
  -3 -10  -9  366.35   28.98   0
  -3  -9  -8   31.94   26.64   0
   0 -15 -10  -28.43   42.85   0
   1 -16 -11   21.35   46.01   0
   1  -8  -1   -5.20   29.21   0
   4 -14  -6   77.37   52.72   0
  -3 -12 -12  305.21   33.95   0
  -2 -14 -12   98.60   40.04   0
  -1 -16 -17   -5.36   36.97   0
  -1 -16 -16   19.58   40.01   0
  -1  -8  -3  426.52   27.51   0
  -1  -6  -2 1360.43   25.62   0
   0 -14  -8   50.27   43.64   0
   0  -4   0 2239.35   25.23   0
   1 -14  -7   57.09   44.83   0
   2 -15  -8   -3.48   47.93   0
   2 -13  -5   84.68   47.14   0
   3 -17 -12    7.85   43.24   0
   3 -14  -6  133.34   51.10   0
   7 -12  -4  -27.55   53.58   0
  -3  -5  -6   17.80   23.77   0
  -2  -7  -4  239.35   24.39   0
   2 -17 -12   11.36   45.64   0
   2  -6   1  108.65   28.11   0
  -3 -13 -15   27.58   35.51   0
  -3  -6  -6  275.57   23.53   0
  -2 -15 -16   81.60   33.65   0
  -2 -15 -15   -3.38   36.41   0
  -2 -12  -8   95.99   35.68   0
  -1 -16 -14   97.52   38.94   0
  -1 -14  -9   -7.91   41.96   0
   0 -17 -15  -27.67   42.11   0
   0 -12  -5  -51.15   34.28   0
   0 -11  -4  391.18   33.32   0
   2 -14  -6   67.36   45.23   0
   3 -16  -9   69.06   52.37   0
   4 -16  -9  -53.85   48.17   0
   5 -11  -2  -41.12   49.22   0
   5 -10  -1  128.09   48.29   0
   5  -6   2  -32.34   38.60   0
   6 -14  -6   13.25   53.21   0
   6  -6   2  184.30   47.83   0
   7 -13  -5  131.79   52.34   0
   8 -10  -2   24.57   45.40   0
  -2 -15 -14  -20.95   38.22   0
  -2  -9  -5  130.69   27.33   0
  -1 -11  -5  396.08   31.89   0
   0 -16 -11  -25.08   43.70   0
   0 -15  -9   83.68   42.11   0
   0 -13  -6  -18.55   36.64   0
   0 -10  -3  484.42   30.78   0
   0  -7  -1  153.46   26.29   0
   1 -16 -10   58.89   46.54   0
   1 -15  -8  167.66   45.53   0
   1 -12  -4  102.90   34.87   0
   1 -11  -3  610.43   34.90   0
   2  -8   0   96.18   31.44   0
   3 -17 -11   92.79   50.60   0
   3 -15  -7  116.59   55.68   0
   3 -12  -3  -15.70   49.33   0
   4 -15  -7   76.16   49.17   0
   6 -11  -2   99.08   46.97   0
   6 -10  -1   -5.71   47.15   0
   8 -11  -3   -8.12   49.33   0
  -3 -13 -13  244.87   36.53   0
  -3 -11  -9    7.10   31.43   0
  -1 -16 -13   44.68   41.60   0
  -1 -12  -6  193.07   32.87   0
  -1 -10  -4   71.33   30.23   0
   1 -17 -12  -36.28   44.40   0
   1 -13  -5   36.79   42.05   0
   1 -10  -2  133.18   32.22   0
   1  -7   0   86.71   27.42   0
   2 -16  -9  -34.34   47.75   0
   4  -6   2   35.22   35.06   0
   6 -12  -3  133.92   50.11   0
   6  -9   0   31.94   47.23   0
  -2 -15 -13  121.37   36.78   0
  -2  -4  -3 1015.93   22.75   0
  -1 -15 -10  113.35   43.84   0
  -1 -13  -7  112.27   38.65   0
  -1  -7  -2   86.44   25.03   0
   0 -14  -7  173.95   43.45   0
   0  -9  -2   64.49   30.57   0
   0  -5   0   45.37   22.15   0
   2 -17 -11   62.39   44.68   0
   3 -13  -4   40.00   48.36   0
   8 -12  -4  127.67   48.44   0
  -3 -13 -12   26.59   35.68   0
  -3 -12 -10    6.91   35.01   0
  -2  -8  -4  331.39   27.80   0
  -2  -5  -3 1189.85   23.57   0
   1 -14  -6  -62.69   45.76   0
   1  -5   1  724.10   24.37   0
   2 -12  -3  177.61   45.35   0
   3 -14  -5  177.98   52.17   0
   4 -14  -5  -14.67   47.73   0
   4  -4   3  637.43   34.38   0
   5  -8   1   14.14   46.28   0
   6 -13  -4   -3.31   55.47   0
  -2 -15 -12   49.66   40.19   0
  -1 -14  -8  184.22   42.61   0
  -1  -9  -3  203.48   29.02   0
  -1  -3  -1   68.75   18.14   0
   0 -16 -10  130.99   44.39   0
   1 -16  -9  110.84   48.19   0
   1  -9  -1  104.25   31.03   0
   2 -11  -2  174.50   39.03   0
   3 -17 -10    0.40   46.94   0
   3 -16  -8   22.56   48.44   0
   4 -16  -8   -5.52   51.50   0
   4  -8   1  320.74   40.78   0
   6  -8   1  274.59   47.93   0
   7 -11  -2    4.92   47.03   0
   7 -10  -1   86.79   47.37   0
  -3 -14 -15   66.70   35.69   0
  -3 -14 -14  -21.37   36.18   0
  -3 -13 -11  326.16   39.10   0
  -2 -12  -7   33.51   34.68   0
  -1 -17 -15  -19.85   41.56   0
  -1  -4  -1 3828.57   28.60   0
   0 -15  -8  119.08   42.50   0
   1 -15  -7   88.03   47.86   0
   7 -12  -3  -27.79   51.01   0
   7  -9   0   34.58   46.92   0
  -2 -13  -8  117.33   37.21   0
  -2 -10  -5  556.66   29.34   0
  -2  -6  -3 2043.28   24.84   0
   0  -8  -1  235.28   28.40   0
   2 -14  -5   27.77   45.80   0
   2  -7   1  277.90   30.18   0
   3 -15  -6  144.82   55.17   0
   4 -15  -6  170.32   53.43   0
   6 -14  -5   40.09   49.79   0
  -1 -17 -14  -77.80   42.50   0
  -1 -15  -9   40.39   42.61   0
  -1  -5  -1  500.65   22.28   0
   0 -12  -4  164.58   34.46   0
   0 -11  -3   49.85   33.40   0
   0  -6   0  659.50   27.86   0
   1 -18 -13   42.33   42.75   0
  -1 -11  -4  -26.40   31.24   0
  -1  -8  -2  124.90   27.85   0
   1 -12  -3    8.16   35.57   0
   1  -8   0 1154.30   30.36   0
   2 -15  -6  -18.80   51.58   0
   3   0  -6 1236.47   63.12   0
   6   0  -4   87.17   66.08   0
   6   0   2  176.44   55.18   0
   7   1  -5  130.44   66.72   0
   8   1   1  281.82   58.54   0
   9   3  -5  -98.87   71.30   0
   9   5  -7 -186.44   85.31   0
  10   3   3  130.62   72.61   0
  10   8  -7  247.93   89.09   0
  10   9  -7  106.28   94.77   0
  11   4   1  -28.98   70.17   0
  11   5  -3  140.03   82.71   0
  11   7  -5  -27.56   84.50   0
  12   6  -1   61.89   83.15   0
  13   8   1   41.53   73.23   0
   4   6 -10  279.79   75.68   0
   4   7 -10   86.04   79.20   0
   5   7 -10  -43.64   76.59   0
   7   2  -7  177.74   68.65   0
   7   5  -9  -70.55   93.88   0
   8   1  -3  180.14   64.20   0
   8   1   2  220.30   59.66   0
   9   2  -3  346.13   75.41   0
   9   2   3    0.63   64.22   0
  11   4  -1  -81.54   70.47   0
  11   4   0  206.83   75.45   0
  11   4   2  -54.72   72.17   0
  12   7  -3   37.78   82.47   0
  13   8   0 -144.85   82.15   0
   1   5  -9  130.69   61.88   0
   3  -1  -2  278.84   38.24   0
   3  -1  -1 2700.94   49.64   0
   5   6 -10  116.06   70.27   0
   5   8 -10   38.19   67.56   0
  10   3  -3  210.23   75.00   0
  10   4  -5   76.05   80.45   0
  10   5  -6  136.82   85.17   0
  10   7  -7   89.20   84.84   0
  11   4   3  247.17   65.53   0
  11   6  -5   97.66   86.70   0
  11   8  -6   54.31   78.19   0
  12   8  -4   97.65   75.84   0
   0   4  -8   59.32   49.99   0
   1   0  -5  153.10   40.41   0
   2   0  -6 1177.96   49.91   0
   2   3  -9  164.16   55.75   0
   3  -1  -3  988.12   42.89   0
   3   6 -10  137.66   63.58   0
   4  -1  -2  241.99   40.63   0
   4  -1  -1 1259.06   44.43   0
   4   5 -10   16.10   70.66   0
   5   0  -6  107.98   65.79   0
   5   5 -10  164.55   80.00   0
   6   0  -5  586.68   57.06   0
   6   1  -7   42.10   73.79   0
   6   7 -10  -26.97   72.88   0
   7   0  -2  208.01   51.91   0
   7   1  -6   31.20   59.23   0
   8   1  -4  153.85   63.92   0
   8   2  -6  165.42   64.40   0
   8   9  -9   38.22   65.90   0
   9   2  -4  187.92   70.12   0
   9   3  -6  193.08   74.26   0
   9   6  -8  -79.15   82.26   0
  11   5  -4  149.71   77.60   0
  13   7   2   25.58   61.81   0
   3   1  -8   28.40   60.94   0
   3   5 -10  156.29   67.59   0
   4  -1  -3  180.16   43.25   0
   4   1  -8  540.66   59.40   0
   6   3  -9  114.80   76.05   0
   6   6 -10  -26.75   69.54   0
   7   0  -3   13.39   50.77   0
  10   3  -4   62.42   71.36   0
  10   6  -7   88.90   77.75   0
  11   7  -6 -187.66   87.42   0
  12   5   1  176.91   70.11   0
  12   5   2  -49.86   72.12   0
  13   7   1   49.77   66.31   0
  13   7   3  -15.85   62.65   0
   3  -1   0 2262.10   42.92   0
   4   4 -10  456.15   71.03   0
   9   5  -8  147.88   82.08   0
  12   5   0   81.38   65.01   0
  12   7  -4 -121.27   72.08   0
  13   7   0   24.89   61.18   0
   0   0  -3   44.99   29.62   0
   0   2  -7  237.08   38.74   0
   1   2  -8  690.98   47.63   0
   1   4  -9   85.60   53.25   0
   2  -1  -2 3242.23   42.38   0
   3  -1  -4   62.93   37.63   0
   5  -1  -2  143.85   44.19   0
   5   1  -8   -4.71   55.19   0
   7   0  -4  243.53   50.27   0
   7   0   1  303.26   46.50   0
   8   1  -5  -14.50   55.90   0
   9   2  -5   97.73   65.75   0
  10   4  -6  100.50   78.24   0
  11   5  -5  122.53   72.21   0
  12   5  -1   83.51   62.30   0
  12   5   3   22.07   58.03   0
   2  -1  -3  848.08   34.25   0
   2  -1  -1  333.65   31.20   0
   3   0  -7  281.24   51.38   0
   3   4 -10  -24.97   61.80   0
   6   0  -6   97.17   50.21   0
   7   2  -8  348.26   63.56   0
   7   7 -10   17.80   60.09   0
   7   8 -10   -9.84   60.21   0
   8   2  -7  445.69   61.28   0
  10   2  -1   -0.20   64.14   0
  10   2   0   38.56   60.81   0
  10   5  -7   19.91   70.61   0
  11   6  -6   44.17   72.89   0
   0   1  -6  178.98   33.44   0
   5   0  -7  195.87   50.54   0
   7   1  -7  372.46   53.78   0
   7   6 -10  -57.55   64.12   0
   9   1  -1   24.77   54.45   0
   9   1   0  152.77   58.24   0
   9   3  -7    8.80   64.06   0
  10   2   1  171.41   55.53   0
  10   3  -5  140.09   63.14   0
  10   7  -8  -49.45   62.84   0
  11   4  -4   61.37   64.97   0
  12   6  -4   72.05   65.11   0
   4  -1  -5  -32.70   42.56   0
   4   3 -10  188.45   60.22   0
   5  -1  -4    9.66   43.05   0
   5   0   4 1034.76   48.38   0
   6   2  -9  297.42   61.64   0
   7   0  -5   93.22   47.78   0
   7   1   5  787.65   52.39   0
   7   9 -10   45.83   55.88   0
   8   4  -9   75.39   71.57   0
   9   4  -8  -44.70   62.92   0
  11   3  -1   72.79   58.10   0
  11   3   0    0.54   60.04   0
  11   3   1  -24.18   60.00   0
  12   7  -5  -71.40   62.97   0
   2  -1  -4 3542.18   40.91   0
   2   0  -7  378.53   39.51   0
   2   2  -9  201.14   43.65   0
   2   5 -10  -33.73   59.79   0
   3  -1  -5 1000.83   40.67   0
   7   0   2   31.09   46.74   0
   9   1   1  185.45   55.05   0
   9   6  -9  -67.63   61.52   0
  10   2   2  179.40   56.61   0
  10   6  -8  -58.10   56.25   0
  11   3  -2 -118.19   63.73   0
  11   5  -6   88.82   65.27   0
  11   7  -7   40.13   56.26   0
  13   6   1  -61.93   57.16   0
  13   6   2  100.18   55.93   0
   0   3  -8   98.48   41.33   0
   1   0  -6 2004.63   39.50   0
   1   3  -9   65.02   42.03   0
   3   3 -10  236.13   55.33   0
   5  -1  -5  466.05   42.73   0
   6  -1  -2  979.86   43.55   0
   6   0  -7  123.29   53.03   0
   8   7 -10   58.50   58.27   0
   8   8 -10 -106.47   57.61   0
   9   1  -4  -13.87   58.86   0
  10   3  -6  -72.71   69.70   0
  10   4  -7   43.67   65.75   0
  11   3   2   40.02   53.74   0
  11   4  -5   33.70   64.38   0
  13   6   0  -27.05   56.07   0
   2  -1   0  513.10   29.12   0
   2   4 -10  207.79   52.39   0
   4   1  -9  232.66   50.84   0
   6  -1  -4  304.75   43.68   0
   7   0  -6  565.51   48.28   0
   8   0  -3  279.01   48.09   0
   8   0   0  244.77   47.53   0
   8   1   4  512.02   53.51   0
   8   2  -8 -109.33   62.70   0
   9   5  -9   50.22   61.54   0
  10   2  -4   27.08   57.64   0
  11   6  -7   78.94   59.88   0
  12   4   0   25.05   57.34   0
  12   4   1  -30.02   54.58   0
  12   6  -5  110.60   63.31   0
  13   6  -1  -40.34   52.58   0
   0   0  -4 1589.23   32.91   0
   4  -1  -6  762.95   45.44   0
   5  -1   1   89.30   36.74   0
   5   6 -11  124.22   55.94   0
   5   7 -11  104.89   52.95   0
   8   0  -4  -13.76   50.81   0
  10   5  -8  142.14   58.36   0
  12   4  -1  264.14   56.04   0
   2  -1  -5 1088.67   34.51   0
   3  -1  -6 1828.26   42.07   0
   3   0  -8  516.66   42.68   0
   4   5 -11   70.79   57.77   0
   4   6 -11   43.12   53.63   0
   5  -1  -6  135.13   42.98   0
   5   0  -8   -2.08   45.73   0
   5   5 -11  -24.82   53.61   0
   6  -1  -5  349.05   44.82   0
   6   6 -11   58.13   54.92   0
   8   1  -7   35.32   54.51   0
   9   1  -5   61.98   56.24   0
   9   2  -7  138.41   56.97   0
  10   2  -5  -16.06   59.10   0
  10   2   3  330.21   56.36   0
  11   3   3   60.67   55.30   0
  12   4  -2   -5.02   55.71   0
  12   4   2   69.80   52.44   0
  13   6  -2   76.30   51.26   0
   2   3 -10  119.24   45.58   0
   3   2 -10  461.36   48.09   0
   5   4 -11   76.67   59.95   0
   6   1  -9   14.93   53.78   0
   6   5 -11   82.17   54.19   0
   7   3 -10  151.57   59.56   0
   8   0  -5  170.26   53.05   0
   8   0   1   22.47   48.87   0
   9   4  -9  -60.03   64.11   0
  10   3  -7   41.91   65.65   0
  10   7  -9  -31.68   55.20   0
  11   4  -6  -25.80   58.78   0
  11   5  -7   72.31   60.22   0
   4   4 -11  147.01   53.84   0
   6   0  -8  150.87   48.84   0
   6   2 -10  -58.71   58.39   0
   7   6 -11   50.23   54.55   0
   7   7 -11   64.93   54.02   0
   8   4 -10   25.43   56.26   0
  10   4  -8  -90.32   60.64   0
  10   6  -9   56.80   61.44   0
  12   5  -5  -14.80   60.20   0
   3   5 -11   16.05   51.61   0
   4  -1  -7  349.33   43.48   0
   6  -1  -6  218.00   44.17   0
   6   4 -11   49.89   53.55   0
   7  -1  -3  382.67   44.33   0
   7   5 -11  -12.25   54.44   0
   7   8 -11  -51.43   49.43   0
   8   2  -9  178.09   60.94   0
   9   1  -6   49.47   56.81   0
  10   2  -6  137.08   60.13   0
  11   3  -5  -59.23   55.32   0
  13   5   0   40.71   57.02   0
   1   2  -9   41.82   38.65   0
   2  -1  -6  117.32   32.18   0
   4   3 -11    8.15   55.56   0
   5  -1  -7   28.68   43.71   0
   5   3 -11  106.57   54.25   0
   7  -1  -4  124.48   44.06   0
   7   1  -9   72.76   59.61   0
   8   0  -6   45.34   49.82   0
   8   1  -8  197.16   60.21   0
   9   2  -8   80.43   57.57   0
   9   3  -9  -12.58   66.42   0
  10   1  -2   52.22   55.67   0
  10   1  -1  147.17   56.29   0
  10   5  -9  -15.15   56.20   0
  11   6  -8  115.59   50.46   0
  13   5  -1   19.03   54.67   0
  13   5   1   39.02   53.71   0
   1  -1  -3 1552.87   28.98   0
   3   4 -11  223.85   51.94   0
   5   0  -9  370.35   48.46   0
   6  -1   1  262.13   40.71   0
   7  -1  -5  616.04   46.13   0
   8   3 -10  117.36   59.96   0
   9   0  -2  115.33   53.24   0
   9   5 -10  -51.99   59.26   0
  10   1   0   31.39   52.82   0
  11   2  -2   52.40   53.18   0
  11   2   0  126.85   55.50   0
  11   4  -7   50.47   55.08   0
  13   5  -2  -35.11   54.14   0
   0   1  -7   30.00   30.77   0
   0   2  -8  153.66   36.52   0
   2   2 -10   74.58   43.31   0
   6  -1  -7  379.40   49.51   0
   7   0  -8   63.34   47.49   0
   8   0   2  753.07   47.92   0
   8   6 -11  134.41   55.20   0
   8   7 -11  -13.35   50.81   0
   9   0  -1   27.25   51.76   0
   9   1  -7  290.96   55.97   0
  10   3  -8  -65.21   59.89   0
  11   3  -6  -14.48   56.08   0
  11   5  -8   59.10   58.28   0
  12   5  -6 -105.36   56.13   0
   1  -1  -4  639.45   26.45   0
   1  -1  -2  262.22   21.07   0
   3   3 -11  242.59   50.63   0
   6   0  -9  105.55   49.95   0
   6   1 -10   43.80   58.75   0
   7  -1  -6  380.21   47.54   0
   7  -1   0  241.64   42.00   0
   8   0  -7  148.34   56.14   0
  10   2  -7   64.05   61.46   0
  10   4  -9   51.13   57.02   0
  11   2   1    5.65   53.06   0
  12   3  -2   76.32   57.45   0
  12   3  -1    9.68   55.34   0
  12   3   0   37.00   53.70   0
  13   5  -3  101.92   50.24   0
   1   4 -10   40.73   47.25   0
   4  -2  -4 1623.76   36.43   0
   4  -2  -3  449.79   34.74   0
   4  -1  -8  100.01   46.15   0
   4   2 -11  362.17   52.23   0
   5  -1  -8  309.92   46.98   0
   9   0  -5    2.05   56.65   0
   9   0   0   46.97   54.49   0
  10   1  -5   38.55   54.96   0
   2  -1  -7 1414.52   37.61   0
   4  -2  -5   62.67   36.28   0
   5  -2  -4  222.69   36.90   0
   5   5 -12    6.83   55.42   0
   5   6 -12    7.77   51.16   0
   8   1  -9    3.78   58.10   0
   8   2 -10  -85.22   61.49   0
   9   2  -9   51.15   61.19   0
  11   4  -8   64.80   61.01   0
  12   3  -3   -2.06   55.17   0
  12   3   1   -8.64   50.36   0
   1  -1  -5  562.68   26.35   0
   3  -2  -4  144.62   30.83   0
   3  -1  -8  280.80   41.63   0
   4  -2  -2  323.04   30.94   0
   5  -2  -5  782.20   40.74   0
   5  -2  -2  919.45   36.71   0
   5   4 -12   95.60   54.78   0
   6  -1  -8  -26.82   49.35   0
   6   5 -12   64.32   52.91   0
   6   7 -12  -37.85   52.73   0
   7  -1  -7   28.56   47.25   0
   7   0  -9   34.20   57.67   0
   8  -1  -4  126.30   49.52   0
   9   0  -6   62.68   58.35   0
   9   1  -8  -34.33   58.63   0
   9   3 -10   38.32   61.98   0
  10   1  -6   65.25   59.01   0
  10   5 -10   78.95   60.69   0
  11   3  -7  -20.39   53.35   0
  12   4  -6  -87.96   58.16   0
   3  -2  -5  878.15   34.30   0
   3  -2  -3  802.57   29.83   0
   3   2 -11   80.69   53.73   0
   4  -2  -6 1312.16   41.95   0
   4   5 -12  -47.56   52.81   0
   6   4 -12  -52.44   52.64   0
   7   5 -12  214.13   57.65   0
   7   6 -12   96.66   53.62   0
   8  -1  -5   39.39   48.08   0
   8   0  -8  131.85   59.41   0
  10   2  -8  128.75   61.75   0
  10   3  -9   31.18   57.80   0
  11   2   2  122.32   53.30   0
   2   1 -10  213.29   40.45   0
   4   4 -12   -8.91   55.95   0
   5  -2  -6  260.02   41.28   0
   5   3 -12  -11.91   58.71   0
   6  -2  -5  122.24   43.61   0
   6  -2  -4   59.07   38.40   0
   6  -2  -3   39.52   38.69   0
   6   0 -10  339.77   63.29   0
   7   7 -12  112.37   50.39   0
   8  -1  -1   57.75   45.49   0
  11   2  -6   31.78   54.71   0
  13   4  -2   41.76   54.27   0
  13   4  -1  -13.00   53.65   0
  13   4   0   99.98   53.80   0
   1  -1  -1 1674.75   27.96   0
   3  -2  -2 1490.59   29.13   0
   4  -2  -1 1768.58   35.64   0
   5  -1  -9  -48.12   50.03   0
   6   1 -11   39.08   61.51   0
   6   3 -12   41.37   56.44   0
   7  -1  -8  197.47   51.45   0
   7   4 -12   81.72   54.50   0
   8  -1  -6   61.38   52.83   0
   9   0  -7   87.25   55.77   0
  10   1  -7   34.04   59.69   0
  10   4 -10   24.24   54.44   0
  13   4  -3   48.60   53.52   0
   1  -1  -6  173.28   28.27   0
   2  -1  -8   99.66   36.12   0
   3  -2  -6  628.53   33.98   0
   4  -2  -7    6.74   41.26   0
   5  -2  -7  451.38   42.98   0
   6  -2  -6  620.92   43.40   0
   6  -1  -9  440.39   51.54   0
   8   1 -10  -78.45   60.08   0
   8   6 -12   86.71   50.54   0
   9   1  -9   -0.15   60.82   0
   9   2 -10   31.00   63.89   0
  11   3  -8  -16.14   55.05   0
  11   4  -9  -17.79   58.81   0
  12   4  -7   -4.23   54.80   0
   7   0 -10 -140.20   62.19   0
   8  -1  -7   78.46   56.80   0
   8   0  -9   86.70   60.65   0
  10   2  -9  -75.91   58.36   0
  11   2  -7  -67.53   54.47   0
   1  -8  -3  922.95   45.26   0
   2  -6  -2    7.91   40.77   0
   2  -4  -1  -10.38   33.79   0
  -6 -14 -11  144.30   52.80   0
  -5 -17 -15   19.68   50.97   0
  -3 -15 -10  154.57   60.61   0
   1 -14  -9  162.75   65.05   0
   2 -12  -7   59.41   60.67   0
  -7 -11  -9   22.46   48.83   0
  -3  -9  -4  490.16   38.15   0
  -2 -17 -13  122.42   63.56   0
  -2  -8  -3  707.33   39.75   0
   1  -1   0 1390.89   38.13   0
   2 -16 -13    7.90   72.18   0
   2  -9  -4   36.51   41.65   0
   6 -11 -10   31.16   58.61   0
   6  -3  -3  216.46   57.71   0
  -7 -13 -11   64.03   49.75   0
  -5 -15 -11    0.64   53.20   0
  -1 -17 -13  163.92   66.71   0
  -1 -12  -6  200.23   48.55   0
  -1 -11  -5  374.23   48.91   0
   1 -17 -14  -15.13   67.00   0
   1 -16 -12   11.99   72.49   0
   2 -13  -8  197.78   64.53   0
   5  -5  -3  248.71   49.19   0
  -6 -15 -12   68.19   48.61   0
  -5  -7  -4  183.24   37.40   0
  -2 -18 -15  -29.87   65.00   0
  -2 -13  -7  258.26   55.23   0
  -2 -12  -6  565.50   46.38   0
  -1 -18 -15  129.84   64.11   0
   0 -17 -13  120.05   73.70   0
   0 -13  -7  139.75   56.61   0
   0 -12  -6  207.51   51.04   0
   1 -15 -10  109.79   72.64   0
   5 -14 -13  143.53   66.65   0
   5 -13 -11  124.09   70.50   0
   5 -10  -7   -6.53   63.15   0
  -6  -9  -6   37.57   41.49   0
  -6  -7  -5  204.35   42.31   0
  -3 -16 -11   16.58   58.78   0
  -2 -14  -8   86.40   61.98   0
  -2 -11  -5  214.98   43.19   0
  -1 -14  -8  221.75   65.37   0
  -1 -10  -4   69.56   47.76   0
   0  -5  -1 2700.29   39.57   0
   2 -14  -9  290.11   70.28   0
   2  -8  -3  481.04   47.36   0
   4 -15 -13   -2.07   72.20   0
   4 -14 -11   49.40   71.97   0
   5 -11  -8  111.45   67.80   0
   5  -8  -5  284.40   55.38   0
   6 -13 -13  -29.51   66.14   0
  -5 -17 -14  -81.51   49.61   0
  -4  -3  -2  128.02   40.83   0
  -3 -13  -7   89.57   53.87   0
  -1  -7  -2   79.74   35.30   0
   0 -10  -4  136.41   45.21   0
   1 -12  -6   29.78   55.20   0
   1  -7  -2   48.12   41.72   0
   1  -5  -1   31.48   35.55   0
   6 -12 -11   80.45   62.46   0
   6  -9  -7   37.93   62.95   0
  -5 -16 -12   -4.71   49.05   0
  -4 -18 -15   34.88   53.27   0
  -3 -14  -8   98.59   60.33   0
  -2 -15  -9  127.52   63.40   0
  -2 -10  -4   13.88   45.11   0
  -2  -4  -1  736.14   32.20   0
  -1 -15  -9   54.25   66.26   0
   1 -13  -7   94.93   63.70   0
   6  -8  -6  177.39   61.25   0
  -6 -17 -15   20.86   49.89   0
  -6 -13  -9   87.04   48.28   0
  -5 -13  -8   38.65   52.12   0
  -5 -12  -7  261.52   48.79   0
  -2 -18 -14  -86.85   66.97   0
  -2 -17 -12   18.63   63.16   0
  -1 -18 -14  -29.65   65.37   0
  -1 -17 -12   34.45   69.97   0
  -1  -5  -1  524.96   31.66   0
   1 -10  -4  984.76   49.42   0
   2 -17 -14   85.15   67.36   0
   5 -12  -9   42.81   61.63   0
   5  -7  -4  227.27   52.28   0
  -6 -14 -10   63.60   51.21   0
  -5 -14  -9    1.86   53.76   0
  -3 -17 -12   20.83   63.53   0
  -3 -15  -9  -28.24   62.87   0
  -3  -6  -2   54.28   33.08   0
   0 -17 -12  -16.50   74.95   0
   0  -9  -3  132.47   44.80   0
   1 -14  -8  215.88   67.19   0
   2 -15 -10 -142.33   73.05   0
   5 -14 -12  -55.38   74.69   0
   6 -11  -9  -63.78   66.54   0
   6  -7  -5  356.32   62.81   0
  -7  -9  -7  104.03   48.52   0
  -5 -15 -10   97.29   55.94   0
  -2  -7  -2 1167.04   37.33   0
   0 -18 -14  124.11   67.03   0
   1  -2   0  414.89   29.45   0
   2 -11  -5  116.07   58.06   0
   2  -7  -2   70.40   45.57   0
   2  -5  -1  980.09   41.78   0
   4 -15 -12   66.22   77.12   0
  -7 -13 -10  -38.17   49.79   0
  -6 -15 -11   85.39   52.90   0
  -5 -18 -15   -7.79   48.66   0
  -5 -17 -13   52.80   52.97   0
  -4 -18 -14  -82.84   56.59   0
  -3 -16 -10   15.31   62.76   0
  -3 -10  -4  734.71   42.44   0
  -2  -9  -3 1160.56   45.04   0
   0 -16 -10   82.13   75.30   0
   1 -15  -9  109.07   73.48   0
   3  -8  -3  -29.76   49.93   0
   5 -13 -10   -8.10   68.80   0
  -7 -14 -11   32.03   49.68   0
  -6 -17 -14   45.07   50.07   0
  -2 -18 -13    2.57   66.75   0
   2 -17 -13   63.88   77.09   0
  -7 -11  -8  272.59   51.60   0
  -6 -16 -12   52.66   50.72   0
  -6  -8  -5  176.67   43.70   0
  -5 -16 -11   52.50   51.41   0
  -5  -8  -4    0.59   38.68   0
  -2 -17 -11   65.61   72.52   0
  -2 -13  -6   -5.51   58.46   0
  -1 -18 -13  -80.92   69.73   0
  -1 -14  -7   43.95   67.04   0
  -1 -13  -6   52.58   53.74   0
  -1 -12  -5  302.31   51.61   0
   0 -13  -6  -12.63   60.01   0
   0  -2   0 2775.44   39.03   0
   2 -14  -8  -42.64   72.23   0
   5  -6  -3   90.93   51.42   0
   6  -4  -3  102.84   56.28   0
  -7 -15 -12  110.47   48.32   0
  -5 -10  -5   71.08   40.61   0
  -2 -14  -7  275.23   63.22   0
  -2 -12  -5  260.44   49.54   0
  -1 -17 -11  -41.94   72.63   0
   0 -18 -13  131.34   75.89   0
   0 -14  -7  137.93   69.49   0
   0  -8  -2  597.72   44.96   0
   5 -11  -7   98.58   70.27   0
   5 -10  -6   84.36   66.83   0
  -5 -18 -14  -53.59   54.79   0
  -3 -17 -11   59.63   59.71   0
  -2 -15  -8  -78.19   64.41   0
  -2  -5  -1  192.04   29.75   0
  -1 -15  -8    4.94   65.90   0
   0 -17 -11   86.65   77.98   0
   0 -11  -4  393.01   52.25   0
   1  -6  -1  610.79   40.69   0
   5  -9  -5  137.78   66.86   0
  -5 -17 -12   58.98   55.11   0
  -3 -14  -7  -44.06   60.13   0
  -3 -13  -6  361.67   54.23   0
  -3  -9  -3   25.31   40.60   0
  -2 -11  -4  447.34   49.51   0
  -1  -6  -1  541.22   36.84   0
   0 -15  -8   33.49   69.97   0
   1 -13  -6  157.27   68.72   0
   4 -15 -11    0.85   80.97   0
   5 -12  -8   58.89   64.52   0
   6 -13 -11   14.75   71.47   0
  -6 -17 -13   87.53   52.39   0
  -6 -14  -9  144.08   52.25   0
  -6 -13  -8   43.96   50.49   0
  -5 -13  -7   51.14   53.75   0
  -4  -5  -2  160.69   35.22   0
  -3 -15  -8  -14.59   62.70   0
  -3 -12  -5   90.24   56.06   0
  -3  -7  -2   21.30   34.11   0
  -2 -18 -12  -70.18   66.22   0
  -2 -16  -9  260.50   68.51   0
   0  -3   0 1817.00   36.70   0
   1 -11  -4   95.71   53.04   0
   2 -17 -12   83.90   78.13   0
   6 -10  -7  162.65   67.80   0
  -7 -10  -7   38.63   50.82   0
  -6 -15 -10  -26.72   55.51   0
  -6 -12  -7    2.03   51.50   0
  -5 -15  -9  107.60   56.52   0
  -3 -18 -12  -79.12   68.27   0
  -3 -16  -9   53.33   64.15   0
  -2  -8  -2  207.09   40.25   0
  -1 -18 -12  162.04   72.07   0
  -1 -10  -3  213.90   46.85   0
   0 -10  -3  559.66   48.23   0
   1 -18 -13   97.90   71.89   0
   1 -17 -11  -35.67   75.33   0
   1 -15  -8  126.70   75.28   0
   3 -10  -4  167.73   55.22   0
   5 -13  -9  151.28   67.28   0
   5  -8  -4    8.73   54.98   0
  -7 -14 -10   91.78   54.91   0
  -7 -13  -9   45.91   54.61   0
  -5 -16 -10   -8.87   55.26   0
  -5 -12  -6  173.26   49.97   0
  -5  -6  -3   74.70   38.42   0
   2 -16 -10   52.45   73.87   0
   2  -8  -2  127.50   49.51   0
   2  -6  -1  811.61   41.87   0
   4 -14  -9  -26.35   71.40   0
   6  -8  -5  120.22   63.24   0
  -7 -15 -11   47.71   52.90   0
  -6 -16 -11    0.07   51.60   0
  -5 -18 -13   50.18   52.55   0
  -5  -9  -4  353.80   42.42   0
  -3 -11  -4  -30.97   48.60   0
  -2 -17 -10   24.85   71.10   0
  -2 -10  -3   73.90   44.06   0
  -1 -17 -10  161.07   74.58   0
   0 -18 -12   22.69   73.24   0
   1 -10  -3  647.18   50.73   0
   2 -13  -6  107.49   68.94   0
   2 -12  -5  103.55   63.34   0
   3  -9  -3   26.88   56.55   0
   5 -15 -12   60.13   70.12   0
   6 -12  -9  -15.19   63.42   0
  -7 -12  -8   54.26   54.24   0
  -6 -18 -14  105.39   48.04   0
  -3 -17 -10   22.49   59.08   0
   0 -17 -10   11.80   80.42   0
   0  -7  -1  127.22   42.01   0
   2 -14  -7   73.95   71.19   0
   4 -16 -12  -62.87   67.24   0
   4  -4  -1   66.60   43.65   0
  -6 -17 -12   54.30   54.77   0
  -5 -17 -11  -34.21   55.38   0
  -5 -11  -5  209.65   46.06   0
  -2 -14  -6   -2.74   67.96   0
  -1 -15  -7  210.28   68.14   0
  -1 -14  -6  160.58   69.18   0
  -1 -13  -5   72.56   54.93   0
   0 -14  -6  101.52   74.11   0
   0  -9  -2   39.63   46.11   0
   0  -4   0 2108.19   37.53   0
   1  -7  -1   -6.70   45.65   0
   1  -4   0  254.67   32.19   0
   4 -15 -10  -62.62   76.77   0
   5 -14 -10   61.28   70.66   0
   5  -7  -3  263.91   54.37   0
   5  -5  -2  113.30   53.34   0
  -6  -6  -4   11.15   43.34   0
  -2 -18 -11    4.40   63.66   0
  -2 -15  -7   49.02   63.88   0
  -2 -13  -5  195.99   57.08   0
  -1 -18 -11   38.93   75.54   0
  -1 -12  -4  120.34   53.82   0
   2 -17 -11   53.64   75.54   0
   2 -10  -3  110.64   51.86   0
   6 -13 -10  -16.82   68.34   0
   6  -7  -4  140.63   61.42   0
  -3 -18 -11  -44.05   69.26   0
  -3 -10  -3  304.72   44.59   0
  -3  -8  -2  730.73   41.25   0
  -1 -16  -8  119.50   71.00   0
  -1  -3   0  346.48   29.66   0
  -1  -2   0 3847.31   45.74   0
   0 -12  -4  113.26   55.30   0
   1 -17 -10   37.00   72.88   0
   1  -9  -2  658.28   51.07   0
  -7 -11  -7  277.11   51.32   0
  -6 -14  -8  -43.76   51.95   0
  -5 -18 -12   63.18   56.30   0
  -4 -19 -13   94.09   58.13   0
  -3 -15  -7  144.48   62.70   0
  -3 -14  -6  147.39   60.98   0
  -3 -13  -5  -88.42   59.29   0
  -2 -12  -4  155.57   50.87   0
  -2  -9  -2   86.48   42.56   0
   0 -16  -8   89.74   74.87   0
   1 -13  -5  -88.03   68.36   0
   3  -8  -2   13.65   49.12   0
  -6 -18 -13  -33.68   51.93   0
  -6 -16 -10   99.05   52.84   0
  -6 -13  -7   66.91   53.39   0
  -5 -16  -9  101.73   56.39   0
  -5 -15  -8   35.92   56.47   0
  -5 -14  -7   39.34   55.09   0
  -3 -16  -8    5.00   62.61   0
  -3  -5  -1   -9.72   34.27   0
  -2 -17  -9   69.78   72.20   0
  -1 -17  -9  -38.35   76.01   0
  -1 -11  -3  289.45   50.68   0
   2  -7  -1   44.10   45.20   0
   4 -14  -8    0.10   72.07   0
   5 -15 -11   42.30   72.23   0
   5 -13  -8  -45.83   67.92   0
   5  -9  -4  131.52   68.43   0
  -6 -10  -5  286.80   46.73   0
  -5 -13  -6  213.05   52.75   0
  -5 -10  -4  161.15   43.06   0
  -3 -17  -9   89.98   62.95   0
  -2 -11  -3  160.99   50.21   0
  -2  -7  -1   28.03   37.35   0
  -1 -19 -12  152.39   70.41   0
  -1  -4   0 3008.59   39.04   0
   0 -17  -9  126.90   82.02   0
   0  -5   0   57.64   35.51   0
   1  -5   0  841.08   39.13   0
   2  -9  -2   37.04   48.48   0
   6 -11  -7   86.74   63.10   0
   6 -10  -6 -119.32   67.63   0
   6  -2  -2  117.36   60.49   0
  -7 -15 -10   84.75   51.62   0
  -7 -14  -9    2.79   52.86   0
  -6 -17 -11   11.76   53.98   0
  -5 -17 -10   60.48   56.73   0
  -3 -12  -4  269.45   51.65   0
   1 -18 -11  -65.90   73.94   0
   1 -16  -8   48.25   80.83   0
   1 -11  -3  630.56   55.64   0
   2 -17 -10   85.39   78.72   0
   4 -15  -9   42.60   79.17   0
   6 -12  -8   45.90   61.98   0
   6  -9  -5  -68.88   64.59   0
  -7 -13  -8   75.98   53.65   0
  -6 -12  -6  216.72   52.13   0
  -2 -18 -10  170.40   65.48   0
  -1 -18 -10  -36.63   74.04   0
  -1  -8  -1  434.63   44.32   0
   1  -8  -1   21.98   47.14   0
   2 -12  -4   31.50   69.24   0
   5  -6  -2  474.04   51.37   0
   5  -2  -1   88.09   50.57   0
  -5 -12  -5  127.58   48.43   0
  -5  -8  -3  463.33   41.25   0
  -4 -19 -12  -68.11   59.10   0
  -3 -18 -10    7.51   67.65   0
  -3  -9  -2 1234.15   43.75   0
  -3  -6  -1  179.23   35.96   0
  -1 -15  -6    0.33   67.76   0
  -1 -14  -5  180.22   69.21   0
  -1 -10  -2   40.77   48.27   0
  -1  -5   0 1875.89   38.13   0
   1 -17  -9  149.68   77.85   0
   2 -15  -7   12.25   76.77   0
   2  -5   0   17.97   40.38   0
   5  -8  -3  392.10   58.57   0
   5  -1  -1  916.31   65.46   0
   6 -13  -9   49.44   64.96   0
   6  -3  -2  203.83   54.46   0
  -6 -18 -12  -71.65   55.49   0
  -6  -8  -4  146.65   43.90   0
  -5 -18 -11  -78.23   54.38   0
  -2 -16  -7    6.64   72.62   0
  -2 -15  -6  136.49   64.94   0
  -2 -14  -5  128.95   65.81   0
  -1 -16  -7  136.42   72.20   0
  -1 -13  -4  135.11   57.53   0
   0 -14  -5   71.36   72.85   0
   1 -10  -2  145.35   52.46   0
   2 -11  -3   12.64   59.32   0
   3  -7  -1  842.63   49.62   0
   5 -15 -10  180.14   74.20   0
   6  -8  -4  298.54   62.77   0
  -7 -12  -7  160.92   53.37   0
  -2 -19 -11  169.87   74.21   0
  -2 -13  -4   11.44   62.89   0
  -2 -10  -2  215.64   45.91   0
   0  -6   0  644.06   39.92   0
   1  -6   0  105.00   40.44   0
   2 -16  -8  159.89   75.09   0
   3  -9  -2  268.44   56.72   0
   4 -16 -10   43.15   71.73   0
   5 -12  -6   31.77   65.11   0
  -6 -15  -8   18.25   54.49   0
  -3 -16  -7  148.15   64.75   0
  -3 -15  -6  -28.19   62.47   0
  -3 -14  -5   92.17   63.60   0
  -2 -17  -8   29.01   71.86   0
  -1 -19 -11  -90.23   66.17   0
  -1 -17  -8   59.96   75.65   0
  -1 -12  -3  209.66   53.68   0
   1 -18 -10  132.08   76.18   0
   1 -15  -6   56.65   77.39   0
   1 -14  -5  124.46   69.94   0
   2  -8  -1  133.80   47.43   0
   4 -14  -7   43.26   71.17   0
   5 -13  -7   82.09   66.06   0
   5 -11  -5  110.07   65.19   0
   6 -14 -10  -35.82   66.96   0
  -6 -14  -7  195.72   51.64   0
  -5 -16  -8   44.26   54.13   0
  -5 -15  -7  261.19   56.44   0
  -5 -11  -4   -5.38   46.71   0
  -3 -17  -8  176.02   62.47   0
  -3  -7  -1  113.34   36.23   0
  -1  -6   0  701.30   38.37   0
   0 -12  -3  212.84   55.63   0
   1 -13  -4  145.37   69.33   0
   2 -17  -9  218.11   78.94   0
   5 -10  -4  217.32   65.61   0
  -7 -15  -9   39.36   54.57   0
  -6  -9  -4   25.50   43.00   0
  -5 -17  -9   22.09   53.41   0
  -5 -14  -6   97.03   54.86   0
  -5  -9  -3   28.76   42.68   0
  -2 -18  -9   73.91   65.25   0
  -2 -12  -3  262.11   50.50   0
  -1 -18  -9  -76.15   72.47   0
   1 -16  -7  151.59   80.32   0
   5 -14  -8   71.66   68.77   0
   6 -11  -6   26.08   65.45   0
   6  -4  -2  188.58   52.65   0
  -7 -16 -10  -23.42   48.86   0
  -7 -14  -8    9.16   54.15   0
  -6 -13  -6   63.31   52.51   0
  -3 -18  -9   34.21   69.88   0
  -2  -4   0 4336.15   44.04   0
  -1  -9  -1  330.45   46.61   0
   0 -18  -9   78.67   80.98   0
   5  -7  -2   52.90   51.88   0
   6 -12  -7  -18.26   60.63   0
   6 -10  -5  159.71   66.04   0
   6  -7  -3  100.57   60.04   0
  -7 -11  -6  100.11   51.10   0
  -6 -18 -11   71.91   51.78   0
  -5 -18 -10   64.50   54.46   0
  -5 -13  -5  -53.97   51.89   0
  -2  -5   0   75.13   30.93   0
   0  -7   0 1122.74   44.85   0
   1 -17  -8   87.27   74.39   0
   2 -15  -6   -7.24   75.18   0
   2 -14  -5  -40.44   71.13   0
   2 -13  -4    1.24   69.05   0
   5 -15  -9    0.86   75.88   0
   5  -9  -3  -21.96   65.12   0
   6 -13  -8   45.54   62.07   0
  -2 -19 -10  159.08   70.94   0
  -2  -9  -1  302.08   46.69   0
  -2  -3   0  423.35   29.65   0
  -1 -19 -10  -36.50   65.98   0
  -1 -15  -5  199.82   67.49   0
   1 -11  -2   69.35   54.18   0
   2 -18 -10    1.64   70.43   0
   2 -16  -7   50.05   79.07   0
   3  -8  -1  251.37   46.97   0
   6  -9  -4   15.71   64.07   0
  -7 -13  -7  -11.40   53.18   0
  -2 -16  -6   89.07   69.69   0
  -2 -15  -5  -53.06   65.08   0
  -2 -11  -2  476.98   48.50   0
  -1 -14  -4  156.15   70.08   0
  -1  -7   0  -10.51   39.62   0
   0 -16  -6  -65.46   79.85   0
   0 -15  -5   -2.22   71.13   0
   1 -18  -9   44.54   76.20   0
   2 -12  -3  176.24   66.75   0
   2  -9  -1  402.47   48.69   0
   6 -14  -9  -12.73   72.05   0
  -6 -12  -5  221.63   50.11   0
  -6 -10  -4  116.10   45.58   0
  -5 -19 -11  139.23   51.56   0
  -5 -12  -4   54.39   51.33   0
  -5 -10  -3  463.86   43.24   0
  -2 -17  -7  101.50   72.00   0
  -2 -14  -4   39.07   66.41   0
  -2  -6   0  266.92   34.46   0
   2 -17  -8   35.14   79.60   0
   2  -7   0  832.85   50.48   0
   4 -13  -5   41.06   68.95   0
  -6 -16  -8   25.56   53.46   0
  -3 -17  -7  -22.81   62.01   0
  -3 -15  -5  195.93   65.37   0
  -2 -18  -8  -13.35   68.11   0
  -1 -13  -3  -46.12   58.37   0
   0 -17  -7   43.97   76.90   0
   0 -10  -1    3.12   50.17   0
   1 -15  -5   47.56   74.52   0
   1 -14  -4  -15.25   73.02   0
   4 -14  -6   72.34   71.69   0
   4  -4   0  329.61   45.52   0
   5 -13  -6  109.72   63.07   0
   5 -12  -5   60.53   62.41   0
  -7  -9  -5   42.50   46.66   0
  -6 -15  -7   67.34   54.33   0
  -5 -17  -8  100.70   53.37   0
  -5 -16  -7   32.71   53.26   0
  -5 -15  -6   38.39   56.07   0
  -2 -13  -3  209.89   60.95   0
  -1 -10  -1 1051.36   49.53   0
   0  -8   0  211.23   45.45   0
   1 -16  -6  135.72   82.00   0
   4 -15  -7   91.80   74.91   0
   5 -14  -7  -79.15   71.05   0
   5 -11  -4   76.63   67.90   0
   6  -8  -3   12.48   63.31   0
  -7 -16  -9   27.84   52.04   0
  -7 -12  -6   54.52   51.41   0
  -6 -18 -10   76.04   52.35   0
  -6 -14  -6  192.90   51.60   0
  -3 -18  -8  150.18   67.68   0
  -3 -11  -2  137.75   49.60   0
  -2  -7   0  452.19   38.86   0
  -1  -8   0  276.61   43.53   0
   0 -18  -8   41.09   78.26   0
   1 -17  -7  150.83   77.36   0
   6 -12  -6   56.94   63.20   0
  -7 -15  -8    6.46   52.40   0
  -5 -18  -9  -17.75   54.85   0
  -5  -7  -2  149.43   39.38   0
  -4  -5  -1 1384.03   37.67   0
  -3  -9  -1   -6.42   38.63   0
  -2 -19  -9  -28.77   71.87   0
  -2 -10  -1   62.98   44.81   0
  -1 -19  -9    0.32   67.14   0
   1  -4   1 1672.16   39.00   0
   1  -3   1 7760.99   53.30   0
   4 -16  -8   48.41   72.39   0
   5 -15  -8  215.47   72.15   0
   5 -10  -3   29.32   66.71   0
   5  -6  -1  146.04   50.75   0
   6 -13  -7  -56.16   62.79   0
   6 -11  -5   25.53   63.06   0
  -7 -14  -7   34.52   53.56   0
  -7 -10  -5  100.62   50.75   0
  -6 -11  -4  231.26   52.30   0
   0  -4   1  340.76   32.80   0
   1 -18  -8  207.43   76.31   0
   1 -12  -2  148.00   60.72   0
   2 -15  -5  -70.48   76.61   0
   2 -14  -4   79.91   70.88   0
   2 -10  -1   70.84   58.30   0
   2  -8   0   93.13   50.46   0
   3  -7   0   27.69   47.80   0
   6 -14  -8  -29.54   70.64   0
  -6 -13  -5  373.96   51.12   0
  -5 -19 -10   50.06   51.18   0
  -5  -8  -2  378.57   40.52   0
  -1 -16  -5   38.64   72.61   0
   0  -5   1 1295.61   38.53   0
   2 -16  -6  210.60   74.27   0
   2 -13  -3  278.26   69.74   0
   2  -4   1 2962.26   43.75   0
   2  -3   1  123.34   35.45   0
   6 -10  -4    8.49   63.39   0
  -6  -7  -3   59.23   42.90   0
  -5 -13  -4  141.35   52.18   0
  -2 -16  -5   38.67   69.17   0
  -2 -15  -4  -53.06   67.27   0
  -2  -8   0   58.27   39.87   0
  -1 -15  -4  180.37   67.74   0
   0 -16  -5  218.11   75.63   0
   0 -15  -4  261.70   71.59   0
   0  -9   0  -13.48   47.54   0
   2 -17  -7  -59.92   79.64   0
  -6  -8  -3   46.04   42.47   0
  -4  -4  -1  193.65   35.49   0
  -2 -18  -7  -19.55   66.73   0
  -1 -18  -7  265.74   72.32   0
  -1 -14  -3  359.48   67.98   0
  -1  -9   0  321.88   46.69   0
   0 -17  -6   62.87   75.89   0
   0 -14  -3   14.79   69.34   0
   0  -6   1  394.90   40.19   0
   1  -9   0  150.07   49.71   0
   1  -6   1 1160.84   43.26   0
   2  -5   1  401.01   39.51   0
   4 -14  -5   33.87   71.46   0
   5  -9  -2  113.84   65.28   0
  -7 -13  -6  132.63   52.77   0
  -7 -11  -5  233.32   52.25   0
  -6 -16  -7   85.93   52.32   0
  -5 -17  -7   85.08   55.83   0
  -3 -17  -6   82.83   59.33   0
  -3 -16  -5  -17.68   61.15   0
  -3 -12  -2  251.32   51.77   0
  -3 -10  -1   26.53   42.86   0
  -3  -6   0  534.07   34.03   0
  -3  -5   0  632.28   34.82   0
  -2 -14  -3   57.75   66.13   0
   0 -18  -7   14.09   80.64   0
   1 -16  -5  -69.45   84.99   0
   1 -15  -4  -20.50   81.22   0
   4 -15  -6 -151.61   74.68   0
   4 -13  -4 -128.69   68.31   0
   5 -14  -6   25.90   73.45   0
   5 -13  -5 -130.55   63.71   0
   5 -12  -4   37.00   64.28   0
   5  -7  -1  152.67   51.76   0
   6  -7  -2  246.42   60.16   0
  -6 -18  -9   54.46   51.27   0
  -6  -9  -3  233.80   43.88   0
  -6  -6  -3  280.74   43.51   0
  -5 -18  -8   80.41   57.30   0
  -5 -16  -6  146.70   52.09   0
  -3 -18  -7   67.83   65.70   0
  -3 -15  -4   99.81   61.93   0
  -3  -7   0   93.36   37.36   0
  -2 -19  -8  145.66   72.23   0
  -2 -11  -1  193.80   48.58   0
  -1 -19  -8  -54.98   69.34   0
  -1  -5   1   52.71   33.59   0
  -1  -4   1   20.48   29.24   0
   1 -17  -6  158.55   76.16   0
   1 -14  -3   17.64   68.88   0
   3  -8   0  107.31   53.47   0
   4 -16  -7  -51.77   77.63   0
   5 -15  -7   29.36   75.67   0
  -7 -16  -8   59.22   48.72   0
  -6 -12  -4  113.30   49.90   0
  -5 -15  -5  -36.88   55.66   0
  -5 -12  -3  165.69   51.13   0
  -2  -9   0  314.17   44.68   0
  -1  -6   1   64.28   36.94   0
   0  -7   1  134.14   44.12   0
   2 -11  -1   95.68   65.60   0
   2  -9   0  329.33   50.82   0
   2  -6   1  109.85   43.67   0
   5 -11  -3  125.73   66.54   0
   6 -13  -6  -43.66   63.97   0
   6 -12  -5  105.33   62.47   0
  -7 -15  -7  101.70   53.05   0
  -6 -14  -5   64.33   51.37   0
  -5 -19  -9    3.75   52.13   0
   0 -10   0  235.55   52.14   0
   0  -2   1  615.36   31.58   0
   1 -18  -7    5.31   73.54   0
   1  -7   1  674.96   46.52   0
   6 -14  -7   62.76   70.34   0
  -6 -10  -3   20.21   45.08   0
  -5 -14  -4   79.20   54.76   0
  -5 -10  -2   -9.79   42.48   0
  -3  -8   0 1010.40   41.60   0
  -1 -10   0   39.68   47.67   0
  -1  -7   1 1036.80   42.57   0
  -1  -3   1 1955.65   34.95   0
   0 -12  -1  169.37   54.75   0
   1 -10   0  -52.32   53.77   0
   2 -16  -5   -9.98   74.03   0
   2 -15  -4  203.57   75.22   0
   2 -14  -3   90.41   73.54   0
   6 -11  -4  176.17   63.49   0
   6  -4  -1  131.09   54.61   0
  -7 -12  -5   71.18   50.12   0
  -3 -11  -1   91.28   49.25   0
  -1 -17  -5   46.02   73.00   0
  -1 -16  -4   61.32   73.88   0
   2 -17  -6  -88.21   78.30   0
   2  -7   1  294.64   46.82   0
   5 -10  -2   53.97   65.41   0
   5  -8  -1  295.24   59.68   0
   6  -8  -2   33.69   62.24   0
   6  -3  -1  238.29   52.98   0
  -7 -14  -6  117.43   50.66   0
  -5  -4  -2   49.18   44.56   0
  -3 -13  -2   86.03   57.57   0
  -2 -18  -6  288.59   65.69   0
  -2 -17  -5  -17.81   69.42   0
  -2 -16  -4  -95.95   69.04   0
  -2 -12  -1  342.98   52.97   0
  -1 -18  -6  -18.86   72.12   0
  -1 -15  -3  -43.05   69.20   0
   0 -17  -5  250.86   73.84   0
   0 -16  -4   60.02   77.17   0
   0 -15  -3   94.29   75.54   0
   0  -8   1 1081.87   47.09   0
   6 -10  -3  109.41   64.33   0
  -6 -17  -7   12.37   51.54   0
  -6 -13  -4   28.02   49.87   0
  -3 -17  -5  122.09   61.64   0
  -2 -15  -3  -64.40   64.32   0
  -2 -10   0  276.07   44.11   0
  -2  -6   1   49.65   37.53   0
  -1  -8   1  -20.38   42.39   0
   0 -18  -6  360.08   74.92   0
   2 -10   0  354.79   56.52   0
   4 -15  -5   10.32   78.83   0
   4 -14  -4   43.79   70.83   0
  -7  -9  -4  372.83   47.58   0
  -6 -18  -8    7.61   50.96   0
  -6 -16  -6   18.18   50.84   0
  -5 -18  -7   88.90   52.96   0
  -5 -17  -6   17.61   51.93   0
  -5 -13  -3   18.27   50.96   0
  -5 -11  -2   79.96   46.54   0
  -3 -18  -6  -44.15   65.64   0
  -3 -16  -4  247.63   59.69   0
  -2 -19  -7  182.41   68.92   0
  -2  -5   1  827.30   32.81   0
  -1 -19  -7   80.37   64.14   0
   0 -14  -2   19.47   68.91   0
   1 -17  -5  143.08   73.88   0
   1 -16  -4  170.50   79.03   0
   1 -15  -3  -63.66   81.57   0
   4 -16  -6  -27.38   75.33   0
   4 -13  -3   23.20   67.08   0
   5 -15  -6  -38.78   74.97   0
   5 -14  -5  -32.99   71.57   0
   5 -13  -4  163.00   65.12   0
  -5 -16  -5   29.22   51.25   0
  -2  -7   1  785.15   39.41   0
  -1 -11   0  241.30   51.09   0
   0 -11   0  124.82   53.77   0
   2 -12  -1  247.42   67.67   0
   2  -8   1  630.39   47.62   0
   3  -7   1  474.70   48.28   0
   5 -12  -3   41.08   62.34   0
   5  -6   0   22.78   49.33   0
  -7 -16  -7    7.54   47.34   0
  -7 -13  -5  -60.06   49.44   0
  -7 -10  -4  143.55   48.34   0
  -6 -15  -5   22.42   52.90   0
  -5 -15  -4   65.93   56.25   0
  -3 -12  -1   34.83   51.15   0
  -2  -4   1 2404.45   37.33   0
   1 -18  -6 -122.80   72.75   0
   1 -14  -2   82.81   68.74   0
   1 -11   0  163.46   53.86   0
   4 -12  -2  -83.78   65.14   0
   4  -4   1  305.78   46.83   0
   5  -9  -1   47.36   63.37   0
   6 -13  -5   18.85   66.69   0
  -3 -10   0   17.06   46.66   0
  -2  -8   1  190.23   40.27   0
  -1 -13  -1   92.59   65.62   0
  -1  -9   1  337.54   47.03   0
   2 -16  -4  117.64   78.14   0
   6 -14  -6   56.05   68.42   0
   6 -12  -4   79.11   60.84   0
   6  -9  -2   21.52   62.49   0
  -7 -15  -6   -1.21   50.41   0
  -7 -11  -4   22.63   48.90   0
  -6 -12  -3   93.98   50.88   0
  -5 -12  -2  113.39   50.73   0
  -5  -8  -1    7.78   39.42   0
  -5  -7  -1  506.22   41.02   0
  -3 -14  -2  -25.09   59.81   0
   1  -1   1    8.15   26.65   0
   2 -17  -5   91.81   77.08   0
   2 -15  -3  254.75   72.85   0
   2 -11   0  216.29   66.21   0
   5 -11  -2    8.81   65.07   0
   6  -7  -1   83.59   61.08   0
  -6 -14  -4  132.18   50.46   0
  -5 -14  -3  301.30   54.00   0
  -5  -9  -1  435.13   42.97   0
  -2 -18  -5   39.15   64.27   0
  -2 -17  -4  158.95   69.13   0
  -1 -18  -5  196.63   74.89   0
  -1 -17  -4  149.90   69.92   0
  -1 -16  -3    3.49   73.16   0
   1  -5   2  308.50   39.26   0
   1  -4   2  299.45   35.46   0
   2  -9   1   68.03   50.58   0
   3  -8   1  -21.17   54.03   0
   5  -7   0   73.34   51.00   0
  -5  -6  -1  279.89   38.26   0
  -2 -19  -6  143.88   70.23   0
  -2 -16  -3   36.04   68.91   0
  -2  -9   1   68.67   41.85   0
   0 -18  -5   15.22   77.97   0
   0 -17  -4   86.06   71.66   0
   0 -16  -3   19.96   76.43   0
   0 -12   0   71.37   59.29   0
   0 -10   1  -39.75   51.48   0
   0  -5   2 1349.67   39.26   0
   1  -6   2   47.05   41.62   0
   2  -5   2   -1.78   43.13   0
  -7 -14  -5  141.25   49.78   0
  -6 -18  -7   63.55   50.19   0
  -6 -17  -6  -24.17   50.12   0
  -6  -9  -2  174.68   40.93   0
  -6  -8  -2  184.12   39.19   0
  -4  -3  -1   79.10   39.88   0
  -3 -18  -5    3.57   64.96   0
  -3 -17  -4  157.63   63.38   0
  -3 -13  -1  180.32   59.85   0
  -3 -11   0  204.64   52.36   0
  -1 -10   1  460.19   49.85   0
  -1  -2   1 3831.14   43.16   0
   0 -15  -2  -85.62   72.81   0
   0  -4   2   37.57   33.19   0
   1 -12   0  419.88   70.35   0
   1 -10   1  205.79   52.53   0
   2 -13  -1   43.54   71.77   0
   2  -4   2   79.26   38.08   0
   4 -15  -4  127.36   79.79   0
  -7 -12  -4    7.34   49.28   0
  -6 -16  -5    9.73   50.81   0
  -5 -19  -7   63.98   52.43   0
  -5 -18  -6  -21.98   52.66   0
  -5 -17  -5   86.94   52.41   0
  -5 -10  -1  537.56   45.22   0
  -3  -7   1  552.21   39.36   0
  -3  -6   1 2448.61   39.76   0
  -2 -12   0   67.35   59.51   0
   1 -17  -4 -126.69   69.37   0
   1 -16  -3   15.32   77.55   0
   2  -6   2 1022.98   45.95   0
   4 -16  -5   -0.16   70.37   0
   4 -14  -3   28.20   69.66   0
   5 -15  -5  -71.58   73.06   0
   5 -14  -4  104.02   70.97   0
   5 -13  -3   83.16   68.99   0
   5 -10  -1  233.88   64.60   0
   6 -10  -2   28.98   65.71   0
  -6 -13  -3   30.48   49.20   0
  -6 -10  -2  251.70   44.09   0
  -6  -7  -2  483.57   42.55   0
  -5 -16  -4   82.19   50.38   0
  -5 -13  -2   83.90   53.34   0
  -3  -8   1   67.50   39.29   0
  -2  -3   1   22.66   30.28   0
  -1  -5   2  296.70   35.38   0
   1 -18  -5  -46.30   73.52   0
   1 -15  -2   67.89   77.89   0
   1  -3   2  347.26   30.90   0
   4 -13  -2   33.73   66.93   0
  -7 -16  -6   75.87   47.06   0
  -6 -15  -4  -60.09   51.79   0
  -3 -15  -2   77.08   58.57   0
  -2 -14  -1   71.04   61.70   0
  -2 -10   1   18.72   45.12   0
   0  -8   2    7.20   44.52   0
   1  -8   2  295.50   52.77   0
   2 -12   0   35.32   69.15   0
   2  -7   2  357.06   45.51   0
   5 -12  -2  102.47   61.18   0
  -6 -11  -2  213.48   49.91   0
  -5 -15  -3   45.98   52.52   0
  -5 -11  -1   42.84   48.12   0
  -3  -9   1  236.41   41.92   0
  -3  -5   1  132.89   32.45   0
   0 -11   1  239.39   52.42   0
   2 -16  -3   65.63   78.98   0
   4 -12  -1   87.22   68.65   0
  -7 -15  -5   51.47   50.25   0
  -3 -12   0  146.13   53.07   0
  -1 -13   0   19.71   65.48   0
  -1 -11   1   58.85   49.99   0
   1 -11   1   21.04   59.27   0
   2 -17  -4  -63.53   72.71   0
   6 -12  -3  116.18   59.73   0
  -5  -5  -1   62.22   35.95   0
  -3 -14  -1  170.34   58.24   0
  -2 -18  -4   34.68   61.90   0
  -2 -17  -3   12.02   61.95   0
  -2 -13   0   74.07   64.26   0
  -1 -18  -4   -8.16   67.95   0
  -1 -17  -3  184.22   67.15   0
   0 -17  -3   -9.85   74.80   0
   0  -9   2   30.55   47.57   0
   2  -8   2  281.84   47.67   0
  -6 -18  -6  111.65   49.26   0
  -6 -14  -3   46.75   50.03   0
  -5 -14  -2   29.10   55.28   0
  -3 -10   1  121.65   49.45   0
  -2 -16  -2  187.28   66.50   0
  -2 -11   1  245.30   47.81   0
  -2  -7   2  265.69   40.41   0
   0 -18  -4  215.26   67.48   0
   0 -16  -2   54.09   72.99   0
   2 -14  -1   57.05   71.53   0
   5 -11  -1  132.55   61.63   0
   5  -5   1   20.16   45.95   0
   6  -9  -1  233.91   61.58   0
  -7 -10  -3   15.08   46.96   0
  -7  -9  -3   15.80   44.18   0
  -6 -17  -5  -38.59   49.74   0
  -6 -12  -2  -78.14   48.40   0
  -5 -18  -5   45.98   49.46   0
  -5 -12  -1  271.89   48.79   0
  -3 -18  -4    7.94   60.41   0
  -3 -17  -3   99.02   64.48   0
  -1  -9   2  150.14   45.04   0
   2 -11   1  263.36   64.43   0
   4 -16  -4 -130.11   70.58   0
   4 -15  -3  -92.70   77.57   0
   4 -11   0   -0.52   62.15   0
   5  -6   1   59.47   50.23   0
   6  -4   0  434.03   52.61   0
  -7 -14  -4   46.59   48.73   0
  -7 -11  -3  139.97   48.72   0
  -6 -16  -4   74.55   49.25   0
  -6  -6  -2   64.46   39.32   0
  -5 -17  -4   73.08   52.38   0
  -3 -16  -2  151.82   58.82   0
  -2 -15  -1  138.91   65.06   0
  -2  -8   2  184.99   39.96   0
  -1 -12   1  156.98   61.65   0
   0 -12   1  286.74   65.57   0
   1 -17  -3  122.89   65.85   0
   1 -16  -2  -78.77   69.23   0
   2  -9   2  548.17   53.84   0
   4 -14  -2  119.74   68.43   0
   5 -15  -4  160.07   69.35   0
   5 -14  -3  -61.66   69.22   0
  -5 -16  -3  -40.86   48.86   0
  -3 -13   0  110.78   57.51   0
   0 -10   2  278.15   51.74   0
   1 -12   1   -1.47   67.71   0
   3  -8   2   85.41   52.25   0
   5 -13  -2    9.97   68.36   0
   5  -7   1  155.95   53.01   0
   6  -7   0  146.01   59.06   0
  -7 -16  -5  -46.95   46.19   0
  -7 -12  -3   -0.43   48.56   0
  -5  -9   0  140.36   40.83   0
  -5  -8   0  164.58   38.19   0
  -4  -4   0  102.69   35.03   0
  -3 -11   1   79.81   47.02   0
  -2 -12   1   31.40   57.08   0
  -2  -9   2  690.43   43.15   0
  -1 -14   0   -5.60   64.60   0
  -1 -10   2  211.82   48.84   0
   1 -10   2  111.66   51.97   0
   4 -13  -1   72.45   66.98   0
   5 -10   0   74.46   63.40   0
  -6 -15  -3   11.42   51.34   0
  -5 -13  -1  159.10   52.47   0
  -5 -10   0   10.88   43.87   0
  -3 -15  -1   81.20   58.04   0
  -2 -14   0   54.42   60.18   0
   1  -6   3  803.83   44.41   0
   1  -5   3   27.15   39.28   0
   2 -16  -2   68.08   75.17   0
   4  -4   2   -4.34   39.32   0
   6 -13  -3   21.58   64.06   0
   6 -10  -1  -23.15   61.72   0
   6  -3   0  725.27   53.33   0
  -6  -9  -1  132.21   41.21   0
  -5 -15  -2  132.56   50.95   0
  -2 -18  -3   69.29   67.35   0
  -1 -18  -3  146.68   68.21   0
   0  -6   3  609.17   42.66   0
   0  -5   3  362.40   38.38   0
   1  -7   3  253.43   45.71   0
   2 -15  -1   49.18   73.90   0
   2 -12   1   -8.60   67.24   0
   2 -10   2    9.30   60.05   0
   5 -12  -1   76.99   61.94   0
   5  -8   1   66.69   61.38   0
   6  -8   0   98.34   61.61   0
  -7 -15  -4   52.70   47.84   0
  -7 -13  -3   57.64   50.79   0
  -6 -10  -1   50.27   44.75   0
  -6  -8  -1  344.78   39.80   0
  -3  -7   2  621.64   39.04   0
  -2 -17  -2  235.11   59.49   0
  -2 -10   2  178.63   46.14   0
  -2  -4   2   36.78   28.39   0
  -1 -13   1  142.35   62.19   0
   0 -18  -3   84.69   67.82   0
   0 -17  -2   10.40   74.27   0
   0 -13   1  -64.90   65.58   0
   0 -11   2   95.73   54.82   0
   1  -4   3   53.82   36.40   0
   2  -6   3   31.43   44.07   0
   4 -12   0   39.03   64.32   0
   6 -12  -2  122.54   58.49   0
  -6 -18  -5   22.62   47.56   0
  -6 -11  -1   71.58   49.34   0
  -5 -11   0  353.26   47.45   0
  -3 -18  -3  -26.07   59.88   0
  -3 -12   1   81.15   54.88   0
  -3  -8   2  763.79   39.19   0
  -1 -16  -1   60.35   68.48   0
  -1 -11   2  539.66   52.86   0
  -1  -7   3   29.60   40.89   0
  -1  -6   3  892.48   40.48   0
   0 -16  -1   49.54   73.18   0
   0  -8   3   64.43   45.01   0
   1  -8   3  111.84   47.86   0
   2 -14   0   52.42   73.72   0
   2  -7   3  264.75   45.67   0
   4  -3   2  738.98   45.15   0
  -6 -17  -4   44.31   51.08   0
  -6 -14  -2  150.12   49.65   0
  -5 -18  -4  -17.91   49.21   0
  -5  -6   0   69.79   37.15   0
  -3 -17  -2   37.90   63.05   0
  -3  -6   2   67.29   36.05   0
  -2 -13   1   52.00   59.97   0
   1 -17  -2  -89.21   72.78   0
   4 -16  -3  155.22   68.20   0
   4 -15  -2  -21.43   74.31   0
   5 -11   0  144.01   60.17   0
  -5 -17  -3   61.63   52.83   0
  -5 -14  -1  107.65   52.71   0
  -2 -11   2   23.86   53.31   0
  -1 -15   0   51.40   70.21   0
  -1  -8   3  182.44   45.47   0
  -1  -5   3  652.07   36.35   0
   0 -15   0  -83.60   72.27   0
   0  -9   3   81.88   49.20   0
   1 -16  -1   77.52   70.01   0
   2 -11   2  169.66   68.41   0
   2  -8   3  136.29   49.33   0
   3  -6   3  201.56   47.17   0
   5 -15  -3   96.38   66.81   0
   5 -14  -2  -10.44   71.46   0
   6 -11  -1   48.60   59.79   0
  -7 -14  -3   20.91   49.42   0
  -6 -16  -3  149.40   49.63   0
  -6  -7  -1   90.02   39.85   0
  -5 -12   0   88.67   50.56   0
  -3 -16  -1   45.36   57.23   0
  -3 -10   2  134.69   49.99   0
  -2 -15   0   93.68   67.07   0
  -1  -9   3  139.84   50.67   0
   0 -12   2   93.00   69.18   0
   1  -9   3  252.68   51.93   0
   2 -13   1 -102.83   72.69   0
   4 -14  -1  -86.51   71.78   0
   4  -1   1  875.43   48.75   0
  -7 -16  -4   -8.93   46.58   0
  -5 -16  -2   91.90   49.59   0
  -3 -13   1  150.34   59.90   0
  -3  -5   2  927.42   36.34   0
  -1 -12   2  104.50   64.97   0
   1 -15   0   36.20   75.46   0
   1 -12   2  -44.56   67.96   0
   5 -13  -1   45.70   67.55   0
  -7 -11  -2    3.89   47.03   0
  -7 -10  -2   54.99   45.80   0
  -3 -15   0   33.14   59.72   0
   0 -14   1   36.90   69.33   0
   0 -10   3  496.95   51.96   0
   2 -16  -1   90.49   73.59   0
   2  -9   3  -75.33   56.79   0
   2  -3   3   39.74   33.19   0
   4 -13   0  240.88   66.90   0
   5  -6   2   19.25   51.77   0
   5  -5   2  105.18   50.34   0
   5  -2   1  142.83   45.58   0
  -7  -9  -2  163.79   44.00   0
  -6 -15  -2  108.86   50.22   0
  -6 -13  -1  -57.88   48.33   0
  -5 -13   0  -55.80   56.09   0
  -3 -11   2  182.60   52.19   0
  -2 -18  -2  -32.26   67.20   0
  -2 -12   2  256.26   61.29   0
  -2  -6   3   16.79   36.61   0
  -1 -18  -2  -26.91   61.98   0
  -1 -17  -1  182.20   71.15   0
  -1 -10   3  157.52   49.92   0
   1 -14   1  -30.53   79.30   0
   1 -10   3   91.96   58.34   0
   5  -7   2  283.79   59.97   0
   6 -13  -2   32.10   62.96   0
  -6 -18  -4   55.36   47.10   0
  -5 -15  -1   49.43   49.75   0
  -2 -17  -1 -133.34   61.87   0
  -2  -9   3   27.22   44.25   0
   0 -17  -1    1.50   73.28   0
   2 -15   0   -1.00   72.85   0
   2 -12   2  130.39   69.45   0
   5 -12   0  119.28   63.96   0
   5  -4   2  353.71   48.48   0
   6  -7   1   44.38   60.15   0
  -7 -15  -3  -68.91   47.60   0
  -5 -18  -3  -26.86   50.97   0
  -5  -8   1   40.62   37.81   0
  -2  -5   3  289.16   37.83   0
  -1 -16   0   16.73   65.65   0
  -1 -13   2   83.54   66.32   0
   0 -16   0  194.30   72.98   0
   2 -10   3   60.38   63.15   0
   4 -10   2   34.10   61.44   0
   6 -12  -1   32.95   59.18   0
  -7 -13  -2   23.52   48.31   0
  -6 -17  -3   -1.48   50.16   0
  -3 -17  -1   62.52   61.47   0
  -3 -14   1   31.89   57.51   0
  -3 -12   2   24.48   58.51   0
  -2 -16   0  107.62   60.89   0
  -2 -10   3  186.67   47.29   0
  -1 -11   3   39.02   63.71   0
   1 -17  -1  -42.16   72.36   0
   1  -7   4  242.03   51.08   0
   1  -6   4  165.29   45.01   0
   2 -14   1  -36.69   71.92   0
   5  -8   2  528.19   63.12   0
  -6 -14  -1  -56.12   50.06   0
  -6  -9   0  299.05   41.37   0
  -5 -17  -2  -22.72   50.84   0
  -5 -11   1   38.47   47.65   0
  -5  -4  -1  451.89   41.22   0
  -2 -13   2   71.51   58.33   0
  -1 -15   1  125.77   71.64   0
   0  -7   4    1.07   42.72   0
   0  -6   4  325.77   41.94   0
   1 -16   0  -75.76   68.20   0
   1 -13   2  -13.89   70.91   0
   1 -11   3  109.78   65.30   0
   1  -5   4  129.72   41.44   0
   2  -1   2  192.41   33.20   0
   4 -15  -1   48.17   65.64   0
  -6 -16  -2   64.62   48.65   0
  -6 -11   0    1.89   47.98   0
  -5 -14   0  -78.97   50.89   0
  -5  -7   1  131.00   36.41   0
  -5  -5   0  457.97   35.18   0
  -3 -16   0  -11.86   62.80   0
  -3  -8   3   51.52   43.13   0
  -2 -15   1   41.00   67.77   0
   0 -15   1   37.38   70.15   0
   0  -8   4   83.70   48.34   0
   2  -7   4   -5.22   50.02   0
   2  -6   4  569.89   45.03   0
   5 -14  -1   72.34   69.56   0
   5 -11   1   -6.61   59.03   0
   6  -2   0   76.23   57.84   0
  -7 -14  -2    4.70   48.44   0
  -6  -8   0   68.52   37.97   0
  -5 -16  -1   18.71   51.47   0
  -3  -9   3  748.03   46.96   0
  -3  -7   3   52.25   36.76   0
  -2 -11   3  203.87   57.23   0
   1 -15   1  160.86   69.66   0
   2 -13   2  121.86   73.10   0
   2 -11   3   45.10   69.29   0
   2  -8   4  181.77   56.62   0
   4 -11   2  125.06   66.65   0
   5  -9   2   23.98   62.65   0
   6 -11   0  115.33   58.21   0
  -7 -16  -3  -10.46   46.48   0
  -6 -12   0   43.96   47.82   0
  -6  -6  -1  238.87   40.11   0
  -5 -12   1  173.56   50.56   0
  -3 -13   2   65.22   58.16   0
  -3 -10   3  121.25   50.51   0
  -1 -14   2   28.46   72.06   0
  -1 -12   3  146.20   64.65   0
  -1  -6   4   28.55   39.68   0
  -1  -3   3  176.87   31.26   0
   0  -9   4  304.03   50.03   0
   1  -9   4  -16.56   50.99   0
  -3 -15   1   -4.59   52.54   0
  -3  -6   3  329.73   35.73   0
  -1  -9   4   80.29   47.26   0
   1 -12   3  -78.17   64.22   0
   2  -4   4   99.04   39.93   0
  -7 -11  -1  155.03   46.91   0
  -6 -15  -1   77.01   47.02   0
  -5 -15   0    8.76   48.94   0
  -2 -17   0   12.70   65.81   0
  -2 -14   2   20.25   64.56   0
  -2 -12   3   59.30   61.11   0
  -1 -17   0  117.25   62.53   0
  -1  -5   4  232.54   38.26   0
   0 -17   0  -79.40   66.22   0
   0 -10   4   17.67   55.81   0
   0  -4   4   52.90   36.09   0
   1 -14   2   37.82   74.49   0
   2 -15   1   -5.48   72.93   0
   2  -9   4  590.10   59.56   0
   3  -7   4  290.39   52.09   0
   3  -5   4  281.52   45.19   0
   6  -3   1   47.48   49.48   0
  -7 -15  -2   83.56   45.78   0
  -6 -13   0  110.87   49.44   0
  -5 -13   1  128.36   51.74   0
  -3 -11   3  163.76   53.34   0
  -2  -8   4  191.77   42.41   0
  -2  -7   4   40.78   39.42   0
  -1 -16   1   61.83   68.71   0
  -1 -10   4  311.76   51.80   0
   1 -10   4  253.78   64.26   0
   2 -12   3  104.98   69.77   0
   5 -12   1   39.00   63.09   0
   6 -10   1   46.11   61.19   0
  -6 -17  -2   66.32   48.74   0
  -3 -17   0  122.03   58.35   0
  -2 -16   1   -8.69   60.24   0
  -2  -9   4  388.52   45.07   0
   0 -16   1  -69.64   68.53   0
   0 -13   3  143.58   71.83   0
   5  -7   3   17.65   62.44   0
   5  -6   3  374.86   53.23   0
   6 -12   0  -85.62   60.26   0
   6  -6   2  122.98   58.80   0
  -7 -13  -1  173.71   49.61   0
  -7  -9  -1  121.93   44.49   0
  -5 -17  -1  105.09   47.56   0
  -5  -9   2   77.13   44.60   0
  -3 -14   2  223.45   56.19   0
  -2  -6   4  433.41   38.42   0
   0 -11   4 -118.90   67.31   0
   2 -14   2  -45.59   69.80   0
   2 -10   4  126.95   64.51   0
   4 -15   0    6.78   64.03   0
   5  -5   3   87.90   48.19   0
   6  -7   2   58.67   59.97   0
  -6 -16  -1   27.66   48.99   0
  -6 -14   0   17.98   50.35   0
  -5 -10   2   55.76   46.68   0
  -5  -8   2  158.37   40.75   0
  -3 -12   3  172.12   55.90   0
  -2 -13   3   82.75   64.46   0
  -2 -10   4  -51.48   54.90   0
  -1 -15   2  -69.54   65.67   0
  -1 -11   4  354.71   61.97   0
   0 -15   2  147.47   70.36   0
   1 -16   1  -34.58   70.13   0
   1 -13   3   61.86   72.48   0
   1 -11   4   71.53   63.35   0
   2  -3   4  432.16   39.82   0
   5 -14   0   95.43   67.88   0
   5  -8   3   18.27   60.43   0
  -6 -10   1   67.01   47.25   0
  -5 -16   0  -23.72   54.40   0
  -5 -14   1   27.43   49.31   0
  -5 -11   2  261.10   49.45   0
  -3 -16   1  173.81   57.87   0
  -2 -15   2  -59.54   60.26   0
   1  -7   5   11.33   48.85   0
   1  -6   5  589.18   49.78   0
   4 -14   1   62.32   66.49   0
   5 -11   2   66.04   61.03   0
   6  -8   2   24.05   58.87   0
  -6 -11   1   42.96   47.01   0
  -6  -9   1   93.00   43.10   0
  -2 -11   4  -32.83   61.10   0
  -2  -5   4  265.78   37.32   0
   0  -8   5   66.09   48.76   0
   0  -7   5  398.85   46.25   0
   0  -6   5  414.87   43.61   0
   1 -15   2   32.95   63.18   0
   1  -8   5  338.30   50.15   0
   2 -13   3  -98.04   70.17   0
   2 -11   4   18.80   67.97   0
   5  -4   3   33.80   44.41   0
   6 -11   1   94.56   56.81   0
  -6 -12   1   45.57   47.92   0
  -5 -12   2   64.25   53.10   0
  -5  -7   2  238.47   39.25   0
  -3 -13   3  127.40   58.23   0
  -3  -9   4   58.12   46.04   0
  -3  -8   4  353.02   44.75   0
  -1 -14   3   97.67   70.77   0
  -1 -12   4   79.99   65.41   0
   0 -12   4  158.11   65.27   0
   0  -9   5  153.93   53.94   0
   1  -5   5 1308.62   44.91   0
   2  -7   5  358.61   50.16   0
   2  -6   5  176.20   46.03   0
   5 -13   1  -52.35   67.30   0
   6  -9   2  -57.45   61.61   0
  -6 -15   0  -32.23   48.11   0
  -3 -15   2  -77.38   57.73   0
  -3 -10   4  165.30   53.61   0
  -3  -7   4  299.96   38.02   0
  -2 -17   1   34.99   63.39   0
  -2  -3   3  474.18   31.15   0
  -1  -8   5  180.40   46.33   0
  -1  -7   5   13.43   43.35   0
   1 -12   4  208.68   68.94   0
   1  -9   5  468.76   60.73   0
   2  -8   5   16.68   56.37   0
   2  -5   5  128.47   42.30   0
  -7  -8  -1   94.99   41.10   0
  -6  -8   1  228.25   38.59   0
  -5 -15   1  -49.05   48.30   0
  -2 -14   3  139.79   63.31   0
  -2 -12   4  112.24   59.46   0
  -1  -9   5   68.17   47.41   0
  -1  -6   5    5.23   40.35   0
   1 -14   3  139.84   66.33   0
  -7 -15  -1   -1.37   44.38   0
  -6 -17  -1    7.16   45.33   0
  -6 -13   1   12.46   48.40   0
  -5 -13   2   26.71   50.06   0
  -5  -5   1  116.72   35.28   0
  -3 -11   4  104.77   56.66   0
  -3  -6   4  364.11   38.29   0
  -2  -2   2 3777.20   41.28   0
  -1 -16   2  -44.54   64.35   0
   0 -16   2   24.77   65.15   0
   0 -10   5  320.58   62.77   0
   1 -10   5   56.78   66.94   0
   1  -4   5   20.45   39.52   0
   2 -12   4   81.02   70.89   0
   2  -9   5   20.39   62.22   0
   5 -12   2   86.42   62.87   0
   5 -10   3   29.37   57.84   0
  -7 -12   0  -20.77   45.78   0
  -7 -10   0   16.70   45.53   0
  -5 -17   0   29.71   46.37   0
  -3 -14   3 -112.51   55.03   0
  -2 -16   2  -12.22   57.54   0
  -2  -8   5  242.76   43.18   0
  -2  -4   4   16.87   36.23   0
  -1 -13   4  100.17   69.54   0
  -1 -10   5    1.17   59.35   0
  -1  -5   5  523.24   39.38   0
  -1  -2   3 3545.54   38.65   0
   2 -14   3  104.51   71.31   0
   3  -5   5  445.76   46.44   0
   6 -12   1   43.23   62.57   0
   6 -10   2   20.05   56.15   0
  -7 -13   0   33.24   47.37   0
  -6  -6   0  573.33   39.48   0
  -2  -9   5   87.47   47.94   0
  -2  -7   5  280.92   40.90   0
  -1 -15   3   63.30   66.14   0
   0  -4   5 1231.70   40.95   0
   1 -13   4  234.73   73.43   0
   2 -10   5   56.25   65.59   0
   2  -2   4  891.94   36.20   0
  -6 -16   0   31.34   48.25   0
  -5 -14   2   55.52   49.71   0
  -5 -10   3   -3.94   48.06   0
  -5  -9   3  155.26   45.81   0
  -5  -6   2   59.90   35.21   0
  -3 -16   2  -49.60   57.77   0
  -3 -12   4  -55.10   53.74   0
  -2 -10   5  140.03   57.09   0
  -2  -6   5  234.17   41.54   0
  -1 -11   5  -64.78   61.44   0
   0 -11   5  -69.86   61.46   0
   1 -11   5   70.69   65.98   0
   1  -2   4  105.67   33.21   0
   4 -14   2   -1.01   65.67   0
   5  -7   4  258.84   59.55   0
   5  -6   4   63.58   56.49   0
   6  -7   3  216.85   58.66   0
   6  -6   3   63.94   57.47   0
  -7  -9   0   59.48   43.66   0
  -6  -7   1  298.57   37.50   0
  -5 -16   1   34.42   47.01   0
  -5 -11   3  -41.36   50.97   0
  -3  -5   4  124.65   36.98   0
  -2 -15   3  145.88   54.57   0
   1 -15   3   85.83   67.27   0
   5 -11   3   44.94   60.93   0
   5  -8   4  156.30   59.71   0
   5  -5   4  174.35   50.18   0
   5  -1   1  103.73   50.46   0
  -7 -14   0   83.66   44.30   0
  -6 -11   2   41.09   45.72   0
  -6 -10   2  189.99   45.32   0
  -5  -8   3  222.90   41.53   0
   1  -7   6  234.24   51.52   0
   1  -1   3  294.51   30.73   0
   2 -13   4  153.66   69.25   0
   2 -11   5  133.12   67.42   0
   5 -13   2  -23.50   66.73   0
   6 -11   2  134.13   58.37   0
   6  -8   3  157.65   57.43   0
   6  -5   3  121.17   52.63   0
   6  -3   2  434.93   48.47   0
  -6 -12   2   43.18   47.54   0
  -6  -9   2  406.48   45.36   0
  -5 -12   3  -22.96   49.51   0
  -3 -15   3  -81.05   57.43   0
  -3 -13   4  143.83   54.02   0
  -2 -11   5  124.88   54.31   0
  -1 -14   4   27.28   60.82   0
  -1 -12   5   84.21   64.84   0
  -1  -4   5  299.29   37.01   0
   0 -14   4   12.59   63.35   0
   0 -12   5  -47.92   64.23   0
   0  -8   6  414.54   47.87   0
   0  -6   6  161.39   42.12   0
   1  -8   6   54.95   52.42   0
   1  -6   6  684.44   45.83   0
   1  -3   5  801.08   38.17   0
   4 -13   3  -87.75   68.05   0
   4 -11   4  -99.77   62.65   0
   6  -2   1  317.75   52.45   0
  -6 -15   1  -50.89   47.13   0
  -5 -15   2   79.49   51.87   0
  -3  -9   5   99.58   47.29   0
  -3  -8   5  274.02   44.82   0
  -2 -14   4  190.20   59.22   0
  -2  -5   5  158.10   36.76   0
  -1  -8   6  -49.73   48.56   0
   0  -9   6   34.02   57.97   0
   1 -14   4  107.14   62.92   0
   1 -12   5  154.28   68.99   0
   1  -9   6  235.21   63.77   0
   2  -8   6  113.96   61.83   0
   2  -7   6   50.73   52.29   0
   2  -6   6  -15.21   45.91   0
   5  -4   4  309.24   46.88   0
   6  -9   3    6.66   54.85   0
  -7 -15   0  102.39   44.24   0
  -6  -5  -1  297.08   44.66   0
  -5  -7   3    6.09   37.05   0
  -3 -10   5   98.78   51.49   0
  -3  -7   5    8.88   40.90   0
  -2 -12   5  172.08   61.25   0
  -1  -9   6  176.91   57.41   0
  -1  -7   6  487.27   44.81   0
   0  -3   5  725.97   36.86   0
   2  -5   6  289.78   45.57   0
   4  -9   5  -87.22   62.04   0
  -7 -11   1   -1.08   44.19   0
  -6 -13   2  -12.04   46.12   0
  -6  -8   2   37.82   37.46   0
  -5 -13   3   -5.95   46.67   0
  -3 -11   5   23.11   54.85   0
  -2 -16   3   57.41   59.26   0
  -1  -6   6   83.07   41.66   0
   0 -10   6  -44.72   60.66   0
   1 -10   6  -84.17   62.36   0
   2 -12   5   39.89   66.36   0
   2  -9   6  167.62   63.18   0
   5 -12   3   51.30   62.27   0
  -7 -12   1   77.90   44.46   0
  -7  -8   0  451.21   41.19   0
  -4  -3   1   40.04   31.72   0
  -3 -14   4   43.42   55.92   0
  -3  -6   5  238.94   38.58   0
  -2  -3   4 1144.98   35.01   0
  -1 -10   6  147.00   57.74   0
  -1  -1   2 1224.22   30.42   0
   0 -13   5  166.84   64.25   0
   5 -10   4  148.45   57.92   0
   6 -10   3    7.26   56.35   0
  -7 -13   1  115.82   44.91   0
  -7 -10   1   59.83   43.06   0
  -6 -16   1   66.51   44.78   0
  -2  -9   6   95.85   51.53   0
  -2  -8   6  148.11   43.57   0
  -2  -7   6  237.50   43.23   0
  -1 -15   4   94.79   59.48   0
   0 -15   4  192.68   62.24   0
   1 -13   5   -2.49   64.38   0
   1  -4   6  555.77   41.28   0
   2 -10   6   40.18   64.53   0
   4 -10   5   87.67   63.02   0
  -5 -16   2   -4.03   44.91   0
  -5 -14   3  -14.21   46.12   0
  -5 -10   4  109.55   48.36   0
  -3 -12   5   97.96   52.23   0
  -3  -3   3  269.79   32.90   0
  -2 -15   4   61.33   58.17   0
  -2 -13   5   32.77   59.58   0
  -2 -10   6   -3.56   56.18   0
  -2  -4   5  951.20   39.07   0
  -1 -11   6   -1.36   62.20   0
  -1  -5   6   13.10   38.34   0
   0 -11   6   73.16   61.10   0
   0  -4   6   39.95   38.06   0
   1 -11   6  -77.84   69.48   0
  -6  -6   1   36.23   36.81   0
  -5 -11   4    9.82   51.56   0
  -5  -9   4   28.80   44.42   0
  -5  -6   3  434.43   37.06   0
  -2  -6   6   13.45   40.39   0
  -1  -3   5  447.07   34.77   0
  -1  -2   4  129.01   30.38   0
   5 -11   4   53.41   60.44   0
   5  -7   5  -53.46   57.43   0
   5  -6   5   75.06   56.40   0
   6  -7   4   19.82   56.58   0
  -7 -14   1   26.31   42.87   0
  -7  -9   1  167.40   43.13   0
  -6 -11   3  163.78   44.39   0
  -6 -10   3  154.44   45.91   0
  -6  -7   2   82.88   37.56   0
  -5  -8   4   34.35   42.08   0
  -2 -11   6  127.90   57.69   0
  -2  -2   3   -4.16   28.91   0
   1  -2   5   84.86   35.21   0
   2 -13   5   48.11   66.42   0
   2  -2   5  103.10   37.93   0
   5 -13   3  183.66   60.50   0
   5  -8   5  101.44   56.73   0
   5  -5   5  299.61   52.82   0
   6 -11   3   40.47   59.22   0
   6  -8   4   86.98   56.80   0
   6  -6   4  232.98   53.41   0
  -6 -15   2   -7.31   45.84   0
  -6 -12   3  -46.24   46.38   0
  -5 -12   4   52.09   47.12   0
  -3 -15   4   50.40   52.25   0
  -3 -13   5   -7.47   52.41   0
  -3  -5   5  343.40   34.37   0
  -1 -14   5   41.93   59.50   0
   0 -14   5 -155.29   63.09   0
   0 -12   6   34.31   64.93   0
   0  -8   7  111.71   51.90   0
   0  -7   7  100.18   45.50   0
   1  -8   7  220.59   58.37   0
   1  -7   7   62.59   47.23   0
   1  -6   7  -40.78   47.59   0
   2 -11   6   -6.61   62.69   0
   4 -13   4  -47.46   61.70   0
   6  -5   4   16.97   53.54   0
  -6  -9   3   25.98   42.67   0
  -5 -15   3    1.58   44.88   0
  -3  -9   6   97.06   49.40   0
  -3  -8   6   64.56   44.65   0
  -2 -14   5  -32.53   50.82   0
  -1  -4   6  421.73   37.70   0
   0  -9   7  206.00   57.83   0
   0  -6   7  394.88   44.24   0
   1 -14   5   -4.79   64.23   0
   1 -12   6   27.07   66.11   0
   1  -9   7   60.89   61.15   0
   1  -3   6  899.86   39.30   0
   2  -7   7   77.21   58.60   0
   2  -6   7   65.75   53.34   0
   2  -3   6  296.24   42.16   0
   2  -1   4  193.33   33.75   0
   4  -8   6  -30.61   57.45   0
   5  -9   5  129.22   54.78   0
   6  -9   4  292.37   53.70   0
  -6 -13   3   44.88   45.01   0
  -5 -13   4   50.30   47.16   0
  -3 -10   6  -21.17   50.98   0
  -3  -7   6  116.20   45.48   0
  -2 -12   6   76.25   60.86   0
  -2  -5   6  565.11   38.73   0
  -1  -9   7    5.66   58.88   0
  -1  -8   7  240.41   48.76   0
  -1  -7   7  543.88   43.62   0
   0  -2   5  412.38   33.94   0
   1  -5   7  184.90   42.71   0
   1  -1   4 2263.43   35.92   0
   2  -8   7 -138.16   59.58   0
   5  -4   5   48.95   45.11   0
   6  -3   3   99.42   44.67   0
  -7 -11   2   49.45   44.61   0
  -6  -8   3  263.02   41.58   0
  -5  -4   1  153.00   33.04   0
  -3 -11   6   99.94   52.43   0
   0 -10   7  181.16   60.18   0
   0  -3   6    0.24   37.53   0
   1 -10   7  -76.36   65.97   0
   2 -12   6  266.37   67.06   0
   2  -9   7   65.14   62.13   0
   2  -5   7   70.88   43.51   0
   4  -9   6  -56.19   57.71   0
   5 -12   4   61.58   60.30   0
  -7 -12   2  -18.00   42.79   0
  -7  -8   1   10.05   41.48   0
  -3 -14   5  -28.45   51.60   0
  -1 -13   6 -100.03   57.31   0
  -1 -10   7 -132.21   56.99   0
   3  -3   6  146.41   40.49   0
   4 -12   5   70.00   60.99   0
   6 -10   4   20.55   56.36   0
  -7 -13   2  -17.43   41.07   0
  -7 -10   2  140.76   42.14   0
  -6 -14   3   23.06   44.34   0
  -6  -5   0   51.76   37.73   0
  -3  -6   6  356.36   40.72   0
  -2  -9   7  223.39   51.88   0
  -2  -8   7  -58.93   50.32   0
   0 -11   7   59.03   65.75   0
   1 -13   6  137.84   55.69   0
   1  -4   7  302.43   44.48   0
   6  -2   2    9.80   42.13   0
  -5 -14   4   61.25   46.28   0
  -5 -10   5   77.41   49.47   0
  -3 -12   6  -61.19   48.33   0
  -3  -4   5  286.48   35.53   0
  -2 -15   5  -49.73   54.33   0
  -2 -13   6   29.83   50.39   0
  -2 -10   7  146.99   54.14   0
  -2  -7   7  203.54   41.78   0
  -2  -3   5  412.82   33.29   0
  -1 -11   7  -14.28   60.03   0
  -1  -5   7  266.52   39.11   0
   1 -11   7  -41.35   69.02   0
   2  -4   7   50.40   40.78   0
   3  -5   7  238.35   50.00   0
  -7 -14   2   34.19   40.95   0
  -5 -11   5   61.71   46.41   0
  -5  -9   5  149.69   44.51   0
  -5  -5   3  628.38   36.26   0
  -2  -6   7  281.68   42.50   0
  -2  -4   6 1590.79   37.82   0
  -1  -1   3   68.70   25.93   0
   0  -4   7  103.71   37.73   0
   0  -1   4  369.66   30.14   0
   5 -11   5   81.74   60.52   0
   5  -7   6   91.09   55.16   0
   5  -6   6   99.79   54.66   0
  -7  -9   2   37.86   42.16   0
  -6 -10   4   34.14   42.43   0
  -6  -6   2  327.12   35.83   0
  -5  -8   5  295.67   43.75   0
  -5  -6   4  104.12   35.01   0
  -2 -11   7  109.14   58.70   0
  -2  -1   1 3674.58   46.45   0
  -1 -14   6  -20.72   58.00   0
  -1  -2   5 3091.00   38.14   0
   0 -14   6  -44.75   57.89   0
   2 -11   7  117.92   62.83   0
   5  -8   6  -19.46   52.98   0
   5  -3   5  129.71   40.73   0
   6  -7   5  174.05   53.60   0
   6  -6   5  114.50   52.19   0
  -6  -9   4  143.48   43.96   0
  -6  -7   3  337.69   36.20   0
  -5 -15   4  -46.21   44.55   0
  -5 -12   5   66.81   43.90   0
  -3 -13   6   12.26   51.86   0
  -3  -5   6   67.88   36.59   0
  -2  -2   4 2441.43   33.54   0
  -1 -12   7   21.58   56.74   0
   0 -12   7 -103.93   58.39   0
   0  -8   8   90.08   56.77   0
   0  -7   8   94.62   48.01   0
   1  -8   8  -44.85   57.95   0
   1  -7   8  165.77   56.15   0
   1  -6   8  215.09   47.88   0
   1  -2   6  154.24   36.51   0
   1   0   2   31.73   24.80   0
   2  -2   6 2197.76   40.66   0
   3  -4   7  238.30   44.26   0
   4 -11   6  147.46   62.82   0
   5  -5   6  -42.74   52.59   0
  -3 -10   7   77.89   51.21   0
  -3  -9   7   94.78   49.61   0
  -3  -8   7  199.17   47.29   0
  -2 -14   6  -30.90   54.53   0
  -1  -4   7  303.18   38.12   0
   0  -9   8  259.01   56.64   0
   1 -12   7  -22.81   56.30   0
   1  -9   8  130.55   61.92   0
   1  -3   7   13.63   42.15   0
   4  -8   7 -101.38   56.14   0
   6  -9   5  -39.49   51.86   0
   6  -5   5   61.86   51.59   0
  -5 -13   5   -4.57   45.23   0
  -3  -7   7  160.83   45.54   0
  -2 -12   7   99.75   53.37   0
  -2  -5   7  205.53   37.51   0
  -1  -9   8   -3.43   52.98   0
  -1  -8   8  114.90   53.45   0
  -1  -7   8  151.65   45.77   0
   1  -5   8   77.00   43.33   0
   2  -8   8   17.12   57.87   0
   2  -3   7   85.81   39.38   0
   2  -1   5 1097.60   37.13   0
   4  -9   7  101.79   59.79   0
   4  -1   4  170.41   37.63   0
  -7 -12   3  174.68   41.86   0
  -7 -11   3   36.64   41.87   0
  -6  -8   4  301.87   42.26   0
  -3 -11   7  189.33   48.58   0
  -1  -6   8  539.34   42.95   0
   0 -13   7  -75.11   61.27   0
   0 -10   8   43.04   60.01   0
   0  -5   8  124.89   42.21   0
   0  -2   6   37.94   35.50   0
   1 -10   8  186.20   66.87   0
   1  -1   5 1474.09   36.09   0
   2 -12   7  -24.69   61.37   0
   2  -9   8  119.31   59.63   0
   2  -5   8  176.84   46.90   0
   5  -4   6  301.91   45.42   0
  -7 -13   3   94.29   40.16   0
  -7 -10   3   33.20   41.83   0
  -7  -8   2  140.01   41.04   0
  -5  -4   2  146.05   31.74   0
  -3  -6   7   40.89   43.94   0
  -1 -13   7  -11.07   55.51   0
  -1 -10   8   36.96   56.36   0
   3  -3   7  -24.57   40.70   0
   4 -12   6  162.41   54.23   0
   6 -10   5   33.93   53.83   0
  -7  -7   1  142.15   39.24   0
  -6 -14   4   35.93   42.32   0
  -5 -14   5   35.61   42.29   0
  -3 -12   7  -39.87   52.49   0
  -2 -13   7   12.56   52.37   0
  -2  -9   8  -20.32   50.02   0
  -2  -8   8  179.15   50.92   0
  -2  -7   8  251.43   50.53   0
  -2  -3   6   -7.85   36.42   0
   0 -11   8  134.88   59.47   0
   1 -13   7   56.15   58.67   0
   1  -4   8   74.25   41.15   0
   4 -10   7    1.74   58.79   0
   6  -4   5  215.76   48.54   0
  -6  -5   1  346.72   37.26   0
  -5 -10   6   20.94   46.52   0
  -5  -9   6  118.47   47.34   0
  -3  -4   6  110.48   34.57   0
  -2 -10   8   33.91   54.94   0
  -1 -11   8   37.66   56.78   0
  -1  -5   8  145.29   41.41   0
   0  -4   8   65.23   42.74   0
   1 -11   8   40.27   57.35   0
   2  -4   8  398.88   42.43   0
   2   0   3  484.51   30.68   0
   5  -1   3   44.27   39.70   0
   6  -2   3  104.05   43.53   0
  -7  -9   3  184.25   42.30   0
  -5 -11   6  -13.15   43.29   0
  -5  -6   5  133.14   36.07   0
  -5  -5   4   23.59   34.24   0
  -3  -3   5   73.57   31.38   0
  -2  -6   8   35.13   40.17   0
  -2  -4   7  -32.18   35.69   0
  -1  -3   7   82.90   36.83   0
  -1  -1   4 4298.59   36.78   0
   0  -1   5  739.53   32.00   0
   5 -11   6   93.37   56.96   0
   6  -7   6    8.88   53.53   0
  -6  -7   4   14.24   38.36   0
  -6  -6   3  107.50   33.52   0
  -5 -12   6  114.27   43.88   0
  -5  -8   6   11.06   42.84   0
  -3 -13   7    5.80   50.30   0
  -2 -11   8  -80.21   54.42   0
  -2  -2   5   33.85   31.44   0
  -2  -1   2  144.56   26.50   0
  -1  -2   6  165.18   33.43   0
   0 -12   8   72.41   60.96   0
   1  -7   9  -48.26   59.89   0
   2 -11   8 -121.28   62.50   0
   2  -2   7   54.59   41.28   0
   3  -4   8   79.29   48.52   0
   4 -11   7   71.10   59.96   0
   5  -3   6  196.68   42.93   0
   6  -6   6  -60.81   51.54   0
  -3  -9   8  141.95   50.30   0
  -3  -8   8   29.72   50.82   0
  -1 -12   8  122.47   54.92   0
   0  -8   9   77.84   54.39   0
   0  -7   9  -99.59   54.60   0
   0  -6   9  286.04   48.24   0
   1 -12   8   82.53   60.31   0
   1  -8   9  102.08   54.92   0
   1  -6   9  -76.31   54.46   0
   1  -2   7   70.53   38.78   0
   1   0   3 1900.84   33.81   0
   4  -8   8   91.00   58.19   0
   4  -7   8    9.27   54.38   0
  -5 -13   6   58.38   45.75   0
  -3 -10   8   20.32   47.54   0
  -3  -7   8   76.60   47.93   0
  -2 -12   8  -18.07   50.20   0
  -2  -5   8  158.58   38.67   0
  -1  -8   9  129.76   51.16   0
  -1  -7   9  268.38   52.21   0
  -1  -4   8  113.44   38.99   0
   0  -9   9  104.84   57.82   0
   1  -9   9  161.37   62.20   0
   1  -3   8   99.73   41.22   0
   2  -8   9   85.47   59.76   0
   2  -7   9  -14.91   56.20   0
   2  -6   9  274.96   55.50   0
   2  -3   8  -29.95   39.21   0
   6  -9   6  -60.26   50.92   0
   6  -5   6   53.60   50.46   0
  -7 -11   4   31.29   41.40   0
  -5  -7   6  361.46   40.54   0
  -3 -11   8  -32.89   49.28   0
  -1  -9   9   26.26   54.11   0
   0 -10   9  216.54   62.27   0
   0  -5   9  112.59   42.60   0
   0  -3   8   52.90   39.17   0
   0  -2   7  245.92   38.22   0
   1  -5   9  180.77   44.14   0
   1  -1   6    2.47   35.60   0
   2  -9   9  132.60   61.01   0
   2  -5   9  214.01   53.08   0
   4  -9   8   63.55   58.67   0
   4  -1   5  268.08   39.26   0
   5  -4   7  128.93   52.69   0
  -7 -12   4   14.54   38.25   0
  -7  -8   3   38.35   40.54   0
  -6  -8   5  -42.72   40.16   0
  -1 -10   9  200.68   56.25   0
  -1  -6   9   55.83   43.31   0
   1 -10   9  107.83   59.66   0
   3  -3   8  727.06   46.44   0
   5 -10   7  -66.90   58.07   0
  -7 -13   4  -58.05   38.87   0
  -7 -10   4   81.31   40.92   0
  -7  -7   2  229.88   38.17   0
  -6  -5   2  169.86   35.68   0
  -3  -6   8  121.04   42.23   0
  -2  -9   9  -84.18   55.41   0
  -2  -8   9   67.21   49.02   0
  -2  -3   7  570.70   37.88   0
   0   0   2 1422.02   30.60   0
   1  -4   9  443.14   46.05   0
   3  -1   6   89.75   35.68   0
   6  -4   6   59.18   48.63   0
  -5 -10   7    4.38   43.66   0
  -3 -12   8   22.74   47.88   0
  -3  -2   4   51.21   29.85   0
  -2 -13   8  -55.81   51.41   0
  -2 -10   9   59.58   56.03   0
  -2  -7   9   60.79   49.44   0
  -2  -1   3 2855.21   35.95   0
  -1 -11   9   96.79   56.92   0
  -1  -5   9   68.71   40.93   0
  -1  -1   5  263.45   29.12   0
   0 -11   9  -51.49   56.72   0
   0  -1   6  194.31   32.63   0
   1 -11   9  157.58   56.37   0
   2 -10   9   41.76   60.99   0
   2  -4   9   70.64   45.25   0
   4 -10   8  -14.55   58.88   0
   6  -2   4  290.89   42.04   0
  -7  -9   4   36.95   40.82   0
  -6  -6   4   92.99   35.99   0
  -5 -11   7   17.05   42.41   0
  -5  -6   6  249.64   38.14   0
  -5  -5   5  428.41   33.72   0
  -2  -6   9  175.52   47.31   0
  -1  -3   8  874.99   40.19   0
   0  -4   9    1.75   41.79   0
   1   0   4 3083.90   36.10   0
  -6  -7   5  153.42   40.60   0
  -5 -12   7   47.60   46.96   0
  -5  -8   7  162.62   44.35   0
  -3  -5   8   44.78   43.12   0
  -2 -11   9   81.21   49.87   0
  -2  -2   6  764.31   33.14   0
  -1  -2   7  501.07   36.63   0
   1  -2   8  525.63   41.12   0
   3  -4   9  100.20   50.88   0
   5  -3   7   -9.82   42.15   0
   5  -2   6   41.85   38.72   0
   6  -7   7   24.95   49.78   0
  -6 -12   6   42.45   41.27   0
  -3  -8   9  129.23   49.45   0
  -1 -12   9   -8.57   52.20   0
   0 -12   9   24.26   51.53   0
   0  -8  10    1.93   56.88   0
   0  -7  10  156.87   54.01   0
   0   0   3   51.59   25.30   0
   1  -8  10   71.83   60.15   0
   1  -7  10  -54.97   53.59   0
   1  -6  10  -23.34   55.26   0
   4 -11   8   60.62   53.49   0
   4  -7   9   94.07   54.49   0
   4  -6   9   75.47   53.39   0
   6  -8   7   32.18   49.13   0
  -5  -4   4  505.66   35.12   0
  -3 -10   9   62.46   47.69   0
  -3  -7   9  105.16   50.12   0
  -2  -5   9  168.84   40.33   0
  -1  -8  10  -27.97   56.41   0
  -1  -7  10  -59.37   53.03   0
   0  -9  10   19.12   59.47   0
   0  -6  10  190.30   53.49   0
   1  -9  10   75.62   63.66   0
   1  -3   9  274.33   41.36   0
   1  -1   7  692.28   38.25   0
   2  -7  10    8.89   56.75   0
   2  -3   9  239.84   41.76   0
   4  -8   9   46.77   55.11   0
  -7 -11   5   48.08   40.00   0
  -6 -13   6  -11.74   40.20   0
  -6  -8   6   41.83   42.05   0
  -5 -13   7   89.57   40.77   0
  -2 -12   9   14.92   51.42   0
  -1  -9  10   88.62   55.48   0
   0  -5  10   66.04   48.19   0
   0  -3   9  346.71   40.61   0
   1  -5  10  295.13   52.83   0
   2  -8  10   -8.59   57.13   0
   2  -5  10   -0.65   56.79   0
   2   0   5  379.88   32.58   0
   4   0   3  139.02   36.77   0
   5  -4   8   67.05   51.43   0
  -7 -12   5   56.03   39.47   0
  -7 -10   5  -27.91   41.59   0
  -7  -8   4   79.10   39.89   0
  -7  -7   3   26.62   39.67   0
  -6  -5   3    4.15   33.00   0
  -3 -11   9    7.47   48.24   0
  -2  -1   4  500.00   28.39   0
  -1 -10  10   59.67   55.52   0
  -1  -6  10   86.84   51.59   0
   0 -10  10   -3.74   55.37   0
   1 -10  10    7.40   55.55   0
   2  -9  10  -33.55   58.61   0
   3  -1   7  270.68   39.29   0
   4  -9   9   57.92   59.40   0
  -3  -6   9  135.71   46.10   0
  -3  -2   5  179.30   28.53   0
  -2  -9  10   30.36   55.34   0
  -2  -8  10   48.40   51.03   0
  -2  -3   8   14.84   35.92   0
  -1  -1   6  522.52   32.76   0
   0   0   4 1535.86   32.96   0
   1  -4  10   25.24   43.66   0
   1   0   5   15.96   28.82   0
   6  -4   7   56.44   48.57   0
  -6  -6   5  114.83   38.83   0
  -5  -5   6   27.84   35.74   0
  -3  -4   8   -6.08   38.65   0
  -2  -7  10  140.15   47.85   0
  -2  -4   9   66.05   38.36   0
  -1  -5  10  311.46   44.23   0
  -1  -3   9   50.36   43.09   0
   0 -11  10   21.58   55.60   0
   0  -4  10  197.95   43.26   0
   2 -10  10   86.26   59.99   0
   2  -4  10  230.57   50.79   0
   4 -10   9    2.08   55.47   0
  -7  -9   5   33.16   40.01   0
  -6  -7   6  101.32   41.20   0
  -5 -11   8  -15.17   45.16   0
  -5  -6   7    1.06   39.38   0
  -2 -10  10  108.39   46.76   0
  -2  -6  10   25.53   50.27   0
  -1 -11  10   91.75   51.86   0
   1 -11  10   16.41   55.37   0
   5  -3   8  216.94   52.02   0
  -3  -5   9  141.70   42.09   0
   6  -7   8  -25.74   48.85   0
   6  -6   8   60.28   50.24   0
  -6  -9   7    8.17   42.90   0
  -5 -12   8   -9.12   41.54   0
  -5  -4   5  193.77   32.39   0
  -3  -9  10  -43.30   46.93   0
  -3  -8  10  -31.21   48.99   0
  -2 -11  10  -45.73   50.83   0
  -2  -1   5  591.02   28.03   0
   0  -8  11  175.32   58.06   0
   0  -7  11   -5.82   56.14   0
   0  -6  11   84.28   55.56   0
   1  -8  11   -6.00   63.47   0
   1  -7  11   -6.50   61.27   0
   1  -6  11  130.93   53.35   0
   1  -3  10  159.85   42.95   0
   2  -3  10  220.46   49.77   0
   2   0   6   14.72   32.62   0
   4  -7  10  143.30   55.08   0
   4  -6  10  -26.84   54.45   0
   5  -8   9  117.75   54.02   0
   6  -8   8   65.58   51.09   0
  -6  -5   4  417.49   33.67   0
  -3 -10  10   70.49   50.86   0
  -3  -7  10   44.16   49.82   0
  -3  -2   6   99.57   31.98   0
  -1  -8  11  109.57   58.13   0
  -1  -7  11  193.93   55.25   0
  -1  -1   7  193.64   33.76   0
   0  -9  11  -58.78   54.73   0
   0  -3  10  216.60   42.87   0
   0   0   5 4725.50   37.03   0
   1  -9  11  -76.47   56.82   0
   1  -5  11   -4.98   57.26   0
   1   0   6 1160.13   34.83   0
   2  -7  11   11.60   60.64   0
   2  -6  11  166.05   58.41   0
   3  -1   8  273.60   41.20   0
   4  -8  10  -47.16   61.70   0
   5  -1   6  362.32   40.91   0
   6  -5   8  100.12   51.27   0
   6  -3   7  147.66   47.76   0
  -7 -11   6   13.06   38.18   0
  -7  -8   5   27.27   40.28   0
  -7  -7   4  200.36   40.53   0
  -7  -6   2  119.98   37.36   0
  -6  -8   7   27.23   40.49   0
  -5  -3   1 1998.80   44.00   0
  -1  -9  11   53.78   55.17   0
  -1  -6  11   52.47   52.89   0
   0  -5  11  -21.40   53.58   0
   2  -8  11   21.56   57.80   0
   2  -5  11  151.27   57.63   0
   5  -4   9  245.41   52.18   0
  -7 -10   6   20.56   39.61   0
  -4  -2   2  833.27   33.27   0
   0 -10  11  -13.86   53.84   0
   2  -9  11   47.97   59.20   0
   4  -9  10  -36.02   55.93   0
   4   0   5  738.56   39.47   0
   6  -4   8  213.08   52.17   0
   6  -1   3  730.95   50.68   0
  -6  -6   6   43.20   39.88   0
  -5  -5   7   52.10   36.20   0
  -5  -3   2  110.87   32.00   0
  -4  -2   1  826.05   39.08   0
  -2  -8  11   56.87   52.42   0
  -2  -7  11   83.93   53.69   0
  -1 -10  11   85.81   53.65   0
  -1  -5  11  -21.05   51.74   0
   1 -10  11   93.45   55.87   0
   1  -4  11  258.51   54.01   0
   2  -4  11   47.88   56.86   0
  -7  -9   6  134.15   40.31   0
  -6  -7   7   46.46   41.70   0
  -4  -2   3  321.52   29.98   0
  -2  -9  11  156.17   46.72   0
  -2  -1   6 1224.26   32.32   0
   0  -4  11  -63.68   46.89   0
   0   0   6  136.30   30.99   0
   2   0   7  801.13   38.32   0
  -5 -11   9   35.61   41.25   0
  -5  -4   6  183.62   33.74   0
  -5  -3   3  390.92   32.61   0
  -2 -10  11  -52.54   50.21   0
  -2  -6  11  -53.06   48.43   0
  -1   0   3 1785.06   31.40   0
   1   0   7    6.07   35.09   0
   5  -3   9  124.09   51.18   0
  -7  -6   3  166.02   38.11   0
  -6  -9   8   32.50   42.46   0
  -6  -5   5  109.55   34.25   0
  -3  -2   7  176.49   34.12   0
  -1  -4  11  198.26   47.46   0
  -1   0   4  487.96   26.76   0
   1  -3  11   99.64   44.58   0
   5  -1   7  348.26   42.20   0
   6  -7   9  -18.12   53.56   0
   6  -6   9   67.63   49.14   0
   6  -1   4   25.40   44.13   0
  -7  -7   5  -25.09   40.27   0
  -3  -9  11  130.36   51.00   0
  -3  -8  11   56.82   46.85   0
  -2  -5  11  207.68   51.69   0
  -1   0   2 2243.58   34.51   0
   0  -8  12    9.09   57.91   0
   0  -7  12  130.64   58.67   0
   0  -6  12  -12.82   55.31   0
   0  -3  11  -62.83   43.23   0
   1  -8  12   12.82   56.46   0
   1  -7  12   50.33   61.06   0
   1  -6  12   70.96   60.71   0
   2  -3  11  139.47   51.84   0
   3  -1   9  175.98   40.63   0
   4  -6  11   82.11   55.41   0
   6  -5   9   43.70   52.46   0
   6  -3   8   47.05   49.83   0
   6  -2   7   51.33   46.90   0
  -7  -8   6   72.42   40.53   0
  -6  -8   8   69.59   42.67   0
  -5  -3   4  358.61   34.33   0
  -3  -7  11   24.84   47.43   0
  -2  -1   7  220.27   35.65   0
  -1  -8  12  119.22   55.10   0
  -1  -7  12  -39.54   58.02   0
   0  -9  12    6.76   58.15   0
   1  -5  12  116.56   54.32   0
   2  -7  12 -152.46   60.87   0
   2  -6  12   -2.54   61.45   0
  -6  -6   7  318.65   41.78   0
  -6  -4   1  479.56   42.57   0
  -6  -4   2   48.34   36.78   0
  -5  -5   8  222.93   42.41   0
  -1  -9  12  167.73   55.75   0
  -1  -6  12  -18.39   53.22   0
   0  -5  12   72.03   52.89   0
   1  -9  12  -68.46   56.24   0
   2  -8  12   36.36   60.57   0
   2  -5  12  155.31   56.58   0
   2   0   8  265.12   40.58   0
   4  -8  11  118.27   55.99   0
   6  -1   5  361.65   45.81   0
  -7 -10   7   26.76   37.52   0
  -7  -6   4  127.40   41.95   0
  -5  -4   7  177.24   36.42   0
   1  -4  12  -87.92   54.90   0
   1   0   8  426.23   39.09   0
   5  -2   9   48.09   50.13   0
   6  -4   9   48.05   50.76   0
  -7  -9   7   36.01   40.42   0
  -6  -7   8  114.67   41.39   0
  -6  -5   6  235.86   38.66   0
  -6  -4   3  157.93   36.64   0
  -3  -2   8  247.97   35.50   0
  -2  -8  12  -67.34   47.40   0
  -2  -7  12  -37.63   53.15   0
  -1   0   6 2124.15   34.63   0
   0  -4  12   -2.13   55.18   0
   2  -4  12  -15.57   55.95   0
   3   0   8  192.42   42.04   0
   5   0   4  974.50   44.25   0
  -5 -10  10   15.77   42.83   0
  -5  -9  10   -8.76   45.38   0
  -5  -3   5   66.62   33.45   0
  -3  -1   5  917.89   33.23   0
  -2  -9  12  198.00   49.52   0
  -2  -6  12   92.88   51.86   0
   5  -3  10   29.03   53.08   0
   5  -1   8   28.81   43.24   0
   5   0   3  507.25   45.21   0
  -7  -7   6   42.70   41.10   0
  -2  -1   8  298.55   34.88   0
  -1  -4  12  190.62   53.05   0
   0   0   8  230.78   35.62   0
   1  -3  12   51.58   55.20   0
   6  -2   8  147.67   48.87   0
  -7  -8   7    9.78   42.71   0
  -6  -4   4  389.15   36.38   0
  -2  -5  12  -36.35   49.41   0
  -1   0   7  591.08   33.93   0
   0  -3  12  311.72   51.32   0
   6  -6  10  -14.21   50.64   0
   6  -3   9  103.24   51.32   0
  -7  -6   5  100.31   42.84   0
  -6  -8   9  -96.72   43.48   0
  -5  -5   9  -10.79   44.79   0
  -3  -8  12  -26.15   52.96   0
  -3  -7  12    5.23   48.31   0
  -3  -1   6   56.14   30.44   0
   0  -8  13   31.16   59.62   0
   0  -7  13   23.06   54.90   0
   0  -6  13  -30.71   58.85   0
   1  -8  13  115.91   59.53   0
   1  -7  13  -39.06   53.51   0
   1  -6  13  125.39   60.58   0
   1  -5  13   -0.72   65.33   0
   4  -6  12   66.32   58.84   0
  -6  -6   8   50.46   41.16   0
  -6  -5   7  198.78   41.82   0
  -5  -4   8  -31.03   39.83   0
  -5  -3   6 1197.10   38.01   0
  -1  -8  13   26.37   55.68   0
  -1  -7  13  131.19   52.35   0
  -1  -6  13   71.85   58.89   0
   0  -5  13   -2.76   57.45   0
   2  -7  13  -26.10   60.55   0
   2  -6  13    4.76   58.02   0
   2  -5  13  130.16   62.24   0
   2   1   5  603.72   31.52   0
   3   0   9  557.63   41.68   0
   5  -2  10   67.99   52.78   0
  -3  -6  12  113.39   47.93   0
  -2  -4  12  115.62   52.47   0
   0   0   9  401.63   40.58   0
   1  -4  13  -82.44   55.70   0
   2   1   4 3858.85   41.38   0
   2   1   6 2040.01   36.38   0
   5  -1   9  535.89   47.64   0
   6  -4  10   92.12   50.98   0
  -7  -9   8  126.69   40.05   0
  -6  -7   9   80.03   43.68   0
  -6  -4   5  112.55   34.73   0
  -3  -1   7 1033.72   36.29   0
  -2  -1   9   63.92   36.33   0
  -1  -5  13   40.19   56.18   0
  -1   0   8  351.63   36.41   0
   0  -4  13   52.21   55.89   0
   1   1   5 3677.29   36.89   0
   1   1   6 1146.70   35.98   0
   2  -4  13  114.26   58.92   0
  -7  -7   7   39.57   43.15   0
  -2  -8  13  -21.53   50.79   0
  -2  -7  13  178.11   48.37   0
  -2  -6  13   80.57   56.95   0
   1   1   4 3977.85   40.15   0
   2   1   7 1336.48   39.38   0
   5  -3  11  127.08   52.38   0
   5   0   7   34.54   40.98   0
   6  -2   9  134.12   51.21   0
  -7  -6   6  132.11   43.47   0
  -5  -3   7   36.62   36.35   0
  -2   0   4  787.76   31.32   0
  -2   0   6 1148.33   34.47   0
  -1  -4  13   89.78   53.56   0
   1  -3  13  204.54   56.64   0
   1   1   7 1348.77   37.45   0
   3   0  10   10.98   49.52   0
   6  -3  10   36.88   53.70   0
  -7  -8   8   23.13   41.66   0
  -6  -4   6  218.49   38.33   0
  -5  -5  10  144.67   48.58   0
  -5  -4   9   74.85   43.66   0
  -2  -5  13   64.55   54.16   0
   3   1   7  200.37   36.15   0
  -6  -8  10   63.88   42.50   0
  -6  -6   9  161.71   42.57   0
  -6  -5   8   17.80   41.79   0
  -3  -1   8   -4.32   36.02   0
  -1   0   9  792.11   39.89   0
   0  -7  14  -72.78   59.93   0
   0  -6  14   -1.01   60.07   0
   1  -6  14   26.45   58.29   0
   2   1   3    8.58   28.55   0
   2   1   8  204.91   39.26   0
   5   0   8  654.05   43.90   0
   6  -6  11  -11.88   54.83   0
   6  -1   8  288.34   48.66   0
  -3  -7  13   -9.59   50.54   0
  -2   0   7  358.89   34.04   0
   0  -5  14  140.46   62.47   0
   1  -7  14  117.72   56.99   0
   1  -5  14   78.25   62.85   0
   1   1   8  937.39   39.05   0
   3   1   8  381.88   43.96   0
   4  -6  13   20.03   57.80   0
   5  -4  12   -5.10   55.23   0
   5  -2  11   19.83   52.05   0
   5  -1  10  -20.14   52.33   0
  -7  -5   4    5.87   40.97   0
  -5  -3   8   72.13   40.91   0
  -3  -6  13  -11.81   48.74   0
  -2   0   3 2543.02   36.01   0
  -1  -7  14    4.43   53.58   0
  -1  -6  14  -17.40   53.45   0
   2  -6  14  118.40   60.32   0
   2  -5  14   10.62   60.54   0
   6  -4  11  -65.80   50.84   0
  -7  -7   8  -80.94   42.82   0
  -6  -7  10  106.90   44.12   0
  -1  -5  14   81.75   56.98   0
   0  -4  14  124.19   59.92   0
   1   1   3  556.79   28.86   0
   2   1   9 1443.79   47.37   0
   4   1   6    7.24   39.26   0
   5  -3  12   19.20   52.18   0
   6  -2  10  -52.50   52.42   0
  -7  -6   7   34.88   43.47   0
  -6  -4   7   58.23   41.32   0
  -3  -1   9  897.48   39.78   0
  -2  -7  14  104.32   55.00   0
  -1   0  10  -25.87   42.81   0
   0   1   4  238.04   29.62   0
   1   1   9   27.64   42.12   0
   5   0   9  233.21   48.64   0
  -7  -5   5  241.20   43.20   0
  -6  -5   9  154.04   45.06   0
  -5  -4  10   99.19   46.26   0
  -2  -6  14  125.35   49.26   0
   3   1   9   39.33   44.64   0
   6  -3  11  -20.28   53.56   0
   6  -1   9   61.06   49.40   0
  -7  -8   9   -5.65   41.09   0
  -6  -6  10   53.71   46.23   0
  -5  -5  11  -75.86   47.63   0
   5  -1  11  124.46   55.94   0
  -6  -9  11  -50.73   44.12   0
  -6  -8  11   87.59   46.63   0
  -5  -3   9   45.85   43.72   0
  -2   0   9  542.76   38.91   0
   0   1   9  486.71   42.66   0
   2   1  10  140.44   45.29   0
   5  -6  13   20.36   56.48   0
   5  -5  13  -96.73   60.55   0
   5  -2  12  101.84   54.25   0
  -7  -5   6  -18.00   44.49   0
  -6  -4   8  286.45   43.08   0
  -5  -2   4   20.42   35.90   0
  -5  -2   5  990.82   38.82   0
  -3  -1  10  452.22   46.26   0
  -1   0  11  753.28   44.74   0
   0  -6  15   86.17   59.61   0
   1  -6  15   33.39   63.46   0
   1  -5  15  -57.84   59.32   0
   3   1  10  113.03   47.60   0
   5  -4  13   10.13   60.07   0
   6  -5  12   94.49   57.04   0
  -7  -7   9  100.45   43.26   0
  -7  -6   8   99.99   44.53   0
  -6  -7  11   -4.80   43.79   0
  -5  -2   6   65.27   36.51   0
  -4  -1   4  197.24   32.57   0
  -1  -6  15  -30.05   56.39   0
  -1   1   6  200.69   32.09   0
  -1   1   7   15.10   35.70   0
   0  -5  15   45.83   59.36   0
   2  -5  15  -68.15   66.06   0
   5   0  10   47.59   50.21   0
   6  -4  12   71.99   53.61   0
   6  -2  11   71.04   55.95   0
   6  -1  10  210.59   55.31   0
  -5  -4  11  -10.13   52.11   0
  -2   0  10  614.72   41.54   0
  -1  -5  15  220.01   59.32   0
  -1   1   8 1311.14   39.06   0
   0  -4  15  101.05   61.67   0
   0   1  10   26.40   42.86   0
   2   1  11  166.96   51.39   0
   5  -3  13   49.68   57.49   0
  -6  -5  10  -71.05   45.33   0
  -5  -2   7  552.85   38.80   0
  -3  -5  14   37.64   54.17   0
   1   1  11  -58.70   50.33   0
   5  -1  12  191.89   58.85   0
   6  -3  12   88.02   54.36   0
  -6  -6  11   36.12   45.78   0
  -5  -5  12   32.98   46.12   0
  -5  -3  10   41.24   46.51   0
  -3  -1  11  -46.48   49.65   0
  -2  -6  15  112.14   58.04   0
  -1   1   9  334.56   41.41   0
   0   1   3   58.07   28.35   0
   3   1  11   76.33   55.97   0
  -3   0   8  544.76   40.13   0
   0   1  11  384.46   46.84   0
  -2   0  11    7.10   43.33   0
   3   0  13  220.23   61.71   0
  -4 -17  -4   22.75   58.55   0
  -3 -14  -1  177.81   57.53   0
  -3 -12   0  179.73   50.15   0
  -3  -8   1  115.74   38.09   0
  -3  -7   1  529.34   36.46   0
  -1 -14   0  -51.84   61.33   0
   0  -7   3  436.04   41.37   0
   0  -6   3  630.68   35.69   0
   1 -11   2  197.62   59.24   0
   3 -16  -2  -31.96   60.74   0
   3 -15  -1  172.19   67.94   0
   3  -8   3   70.39   49.96   0
   4  -7   3  230.76   49.08   0
  -7 -14  -8   -2.54   12.53   0
  -5 -19  -7  130.84   51.00   0
  -4  -9   0  124.68   40.56   0
  -4  -8   0   30.71   36.79   0
  -2 -15  -1  133.90   60.65   0
  -1 -10   2  258.44   42.95   0
   0 -11   2   19.27   56.94   0
   1 -13   1  109.46   63.96   0
   3 -14   0  165.11   63.25   0
   4 -12   1  204.30   57.94   0
   5 -11   1  -29.26   56.12   0
   5  -9   2  -79.32   57.09   0
  -3 -19  -5   39.11   59.25   0
  -3 -18  -4  118.55   53.98   0
  -3  -6   1 2376.35   38.23   0
  -2  -8   2  155.44   39.48   0
   0 -18  -3  111.84   66.11   0
   0 -17  -2  -26.22   63.13   0
   0 -13   1  -45.27   56.88   0
   0  -8   3   62.59   42.70   0
   1  -9   3  245.98   52.00   0
   3 -11   2  267.94   61.48   0
   5 -14  -1   22.81   63.44   0
  -6 -11  -3   78.32   47.17   0
  -6 -10  -3   35.87   41.38   0
  -5  -5  -3  762.60   38.83   0
  -4 -13  -1  196.48   52.18   0
  -4 -10   0  222.11   43.50   0
  -4  -7   0  382.67   36.81   0
  -3 -16  -2  259.81   62.73   0
  -3 -10   1  140.73   41.88   0
  -2 -12   1  -14.70   53.00   0
  -2  -9   2  691.17   42.08   0
  -2  -2   0 5706.79   50.05   0
  -1 -18  -3   91.77   62.36   0
  -1 -17  -2  -21.11   64.19   0
   0 -16  -1   82.98   64.78   0
   0  -4   3 1050.49   35.09   0
   1 -16  -1   11.99   71.39   0
   3 -13   1   42.25   62.70   0
   3  -9   3  245.77   56.92   0
   4  -8   3  250.93   56.71   0
   4  -2   3  940.86   45.27   0
  -7 -14  -6   47.78   47.81   0
  -6 -18  -7   79.53   48.64   0
  -6 -17  -6   46.43   51.17   0
  -6  -9  -3  270.39   40.55   0
  -6  -7  -4  348.41   40.46   0
  -5  -6  -2  763.03   36.65   0
  -4 -15  -2  -44.17   54.55   0
  -3 -13   0   31.91   55.64   0
  -2 -14   0   65.10   57.62   0
  -1 -13   1   56.68   58.65   0
  -1 -11   2  491.82   49.25   0
   0 -15   0  -46.65   71.12   0
   0  -9   3   66.42   44.30   0
   5 -13   0    7.11   61.41   0
  -7 -17  -8   -9.94   44.48   0
  -7 -16  -7   59.87   46.17   0
  -6 -16  -5    7.84   49.16   0
  -6 -12  -3  105.69   48.77   0
  -4 -11   0   66.17   45.32   0
  -3 -15  -1   58.02   62.00   0
  -2 -18  -3  -45.26   61.33   0
  -2  -3   1   45.34   27.26   0
   1 -12   2    4.21   61.45   0
   1 -10   3  107.34   57.37   0
   4 -14   0   78.52   66.55   0
   5 -10   2  103.81   59.63   0
   5  -7   3  -17.48   57.15   0
  -4  -6   0  214.76   31.34   0
  -3 -11   1   56.38   43.04   0
  -3  -5   1  149.24   32.24   0
  -2 -17  -2  175.69   60.56   0
  -1  -8   3  216.45   40.77   0
   1 -14   1   67.09   67.67   0
   4  -9   3  150.77   59.39   0
   5 -12   1  -54.23   58.78   0
  -7 -15  -6  -20.30   47.28   0
  -7 -12  -5   51.79   46.94   0
  -7 -11  -5  218.63   46.19   0
  -6 -15  -4  -38.88   50.31   0
  -6  -8  -3   94.70   38.19   0
  -6  -6  -5  939.22   48.97   0
  -4 -14  -1    9.70   53.09   0
  -2 -16  -1  108.13   61.57   0
  -2 -13   1   97.39   57.37   0
  -1  -5   3  594.67   34.89   0
   0 -14   1    9.38   66.64   0
   0 -10   3  429.59   50.74   0
   3 -16  -1   12.41   65.04   0
   3 -12   2  171.45   61.29   0
   3 -10   3   86.97   61.29   0
   3  -6   4   86.04   48.32   0
   3  -5   4  248.07   43.46   0
   4 -13   1  -41.04   64.69   0
  -7 -13  -5   34.97   48.43   0
  -7 -10  -5   68.33   46.36   0
  -6 -13  -3   90.94   48.64   0
  -4 -17  -3   48.77   54.56   0
  -4 -12   0  101.31   50.74   0
  -3 -14   0   23.70   55.77   0
  -2 -11   2   -6.27   47.81   0
  -1 -12   2  107.42   59.27   0
   1  -7   4  222.78   43.59   0
   3 -15   0   98.39   67.39   0
   3  -4   4  444.99   39.11   0
   5  -8   3   33.34   58.41   0
  -3 -18  -3  212.95   54.26   0
  -3 -12   1   63.22   53.33   0
  -2 -15   0  126.92   60.94   0
  -1 -14   1   29.62   62.61   0
   1 -11   3   52.87   62.00   0
   1  -5   4  121.10   37.32   0
   1  -2   3  847.44   33.74   0
  -6 -18  -6   42.09   49.56   0
  -6 -17  -5   16.72   50.70   0
  -3  -8   2  734.37   42.98   0
  -2  -4   2   57.40   31.40   0
  -1 -10   3   98.22   45.07   0
   0 -13   2   90.95   60.54   0
   1  -8   4  394.31   48.82   0
   3 -14   1   -3.82   68.44   0
   4  -5   4  442.72   46.78   0
  -7 -16  -6   41.50   45.15   0
  -6 -14  -3   63.51   49.38   0
  -4 -15  -1   94.14   56.46   0
  -4 -13   0   60.31   52.44   0
  -4  -8   1  655.43   39.03   0
  -3 -16  -1  176.83   58.47   0
  -3  -9   2   13.23   39.01   0
  -3  -7   2  638.75   37.31   0
  -1 -17  -1  156.39   60.49   0
   0 -16   0  158.14   60.88   0
   0 -11   3  168.54   57.55   0
   1  -4   4 1214.50   39.20   0
   4 -12   2   22.64   60.59   0
   5 -11   2   64.40   58.40   0
  -6 -16  -4    9.98   44.97   0
  -6 -11  -2  180.76   44.79   0
  -4 -10   1  159.21   42.76   0
  -3 -13   1  119.74   55.22   0
  -3 -10   2  112.34   41.52   0
  -2 -18  -2  209.21   60.68   0
  -2 -14   1   55.66   56.13   0
  -2 -12   2  208.77   55.43   0
  -2  -8   3  742.38   39.92   0
  -1  -4   3  515.65   31.74   0
   0  -8   4   91.58   44.51   0
   0  -6   4  326.24   38.46   0
   1  -9   4   32.64   53.41   0
   2 -16   0   76.43   64.32   0
   3 -11   3   23.13   59.73   0
   3  -3   4  320.00   39.83   0
   4 -15   0   24.17   62.88   0
   5  -9   3   36.83   56.62   0
  -7  -9  -5   54.74   42.21   0
  -6 -12  -2  -96.43   47.76   0
  -6  -9  -2  163.51   38.44   0
  -4  -7   1  207.10   35.58   0
  -3 -15   0  127.24   62.31   0
  -2  -9   3   80.86   42.58   0
  -1 -11   3   35.22   54.98   0
   0 -15   1   49.02   62.99   0
   0  -5   4 1891.51   38.58   0
   3 -13   2   24.85   61.37   0
  -7 -15  -5   70.90   43.87   0
  -7 -12  -4   85.61   44.07   0
  -7 -11  -4    4.17   43.54   0
  -6 -15  -3   91.95   48.95   0
  -6  -7  -3   24.65   35.33   0
  -4 -11   1  444.01   47.28   0
  -3 -11   2  304.12   47.71   0
  -3  -4   1  237.24   27.93   0
  -3  -3   0 2010.99   33.97   0
  -2  -6   3   -5.05   35.08   0
  -1 -15   1   65.33   64.25   0
   0  -9   4  327.05   49.82   0
   2 -15   1   43.35   66.91   0
   3  -9   4   -5.14   56.40   0
   4  -8   4  -34.99   56.96   0
  -7 -13  -4   85.42   46.33   0
  -6 -13  -2  -30.70   47.40   0
  -4 -17  -2    3.84   51.12   0
  -4 -14   0  153.51   51.01   0
   0 -12   3   -1.70   57.83   0
   1 -10   4  302.97   58.82   0
   3  -1   3  228.75   37.73   0
   4 -11   3  181.99   61.11   0
  -7 -18  -7  -30.44   42.74   0
  -7 -10  -4  121.09   43.11   0
  -6 -18  -5   38.86   46.59   0
  -5  -6  -1  229.19   32.85   0
  -4 -12   1   25.30   51.75   0
  -3 -18  -2  -88.11   52.17   0
  -1  -7   4  510.04   38.74   0
   2 -14   2  -50.76   65.21   0
   5 -10   3  -36.37   58.25   0
  -7 -14  -4   14.27   47.71   0
  -6  -8  -2  156.58   34.98   0
  -4  -6   1   33.98   32.86   0
  -3 -17  -1   70.13   51.78   0
  -3 -14   1   29.44   53.95   0
  -2 -15   1    9.76   60.73   0
  -2  -5   3  247.16   32.87   0
  -1  -8   4   52.98   37.54   0
  -1  -6   4   89.69   35.84   0
   0 -10   4   23.64   54.10   0
   0  -4   4   74.36   32.89   0
   3 -15   1  -33.37   61.34   0
   3 -12   3   98.94   56.26   0
   3 -10   4   46.97   61.41   0
   4 -13   2   59.34   60.32   0
   4  -9   4   -2.80   57.05   0
   5 -12   2   13.11   54.71   0
  -6 -16  -3  141.49   48.06   0
  -6 -14  -2  142.67   48.31   0
  -3 -16   0   38.30   57.14   0
  -3  -5   2  924.66   32.46   0
  -2 -11   3   99.62   48.33   0
  -1 -17   0   94.52   57.59   0
  -1  -9   4   49.16   42.49   0
  -1  -2   2  671.39   27.44   0
   4  -1   3 1266.68   52.65   0
   5  -7   4  216.77   54.72   0
  -6  -6  -4    7.52   35.96   0
  -4 -15   0  -21.28   52.37   0
  -4 -13   1   43.70   49.57   0
  -1  -3   3  192.03   28.31   0
   0 -16   1  111.83   62.48   0
   3 -14   2    5.56   64.91   0
  -7 -15  -4   16.65   42.61   0
  -6 -11  -1  134.08   41.82   0
  -6 -10  -1   58.50   39.90   0
  -4  -9   2  226.31   40.91   0
  -3  -9   3  881.18   41.32   0
  -3  -8   3   62.84   37.17   0
  -2 -14   2  141.18   59.96   0
  -1 -16   1   11.96   56.61   0
  -1 -10   4  182.76   48.53   0
  -1  -5   4  239.50   32.53   0
   1  -7   5  -26.09   44.63   0
   3  -7   5    8.05   51.69   0
   3  -6   5  124.87   46.59   0
  -7 -18  -6  -21.05   39.16   0
  -7 -12  -3   35.86   41.74   0
  -7  -9  -4  372.70   39.46   0
  -6 -15  -2    4.18   46.04   0
  -6 -12  -1   89.52   42.83   0
  -4 -18  -2  -19.68   49.88   0
  -4 -10   2  184.43   42.26   0
  -4  -8   2  189.78   35.27   0
  -3 -15   1  107.91   54.83   0
  -3 -13   2   56.83   49.91   0
  -3 -10   3   40.21   43.61   0
  -3  -7   3   83.73   35.97   0
  -2 -17   0  -34.98   56.04   0
  -2 -12   3   29.68   52.98   0
  -2  -3   2  465.87   24.30   0
  -1 -13   3   18.49   60.15   0
   0 -15   2  120.46   63.27   0
   1  -8   5  390.40   49.48   0
   1  -5   5 1279.11   40.07   0
   4 -10   4   10.63   61.04   0
  -7 -17  -5    3.14   42.64   0
  -7 -13  -3   94.24   42.20   0
  -6  -9  -1  126.80   35.43   0
  -4 -17  -1  -31.99   48.46   0
  -4 -11   2   39.40   48.04   0
  -2 -16   1   93.65   60.19   0
  -2  -8   4  132.03   39.10   0
  -1 -15   2  -61.33   61.77   0
   0  -7   5  428.77   41.28   0
   0  -1   2  241.30   25.15   0
   3 -13   3   50.66   65.82   0
   3 -11   4   65.18   55.86   0
   3  -8   5  189.99   56.79   0
   5 -11   3  -29.27   54.28   0
  -7 -10  -3   11.25   40.77   0
  -6 -17  -3  -25.33   46.72   0
  -5 -11   1   40.66   47.22   0
  -5 -10   1  337.31   40.75   0
  -4 -14   1  -16.42   51.02   0
  -4  -7   2   23.25   32.56   0
  -3 -11   3  133.06   49.27   0
  -2  -9   4  218.70   42.06   0
  -2  -7   4   75.87   35.59   0
  -2  -4   3  834.92   31.65   0
  -1 -11   4  298.54   54.03   0
   0  -8   5  111.37   41.92   0
   0  -3   4  370.99   30.60   0
   1  -9   5   65.88   56.71   0
   2 -15   2  -87.91   62.50   0
   3  -4   5  314.11   40.24   0
   4  -6   5  161.34   51.22   0
   5  -3   4  129.25   47.83   0
  -7 -14  -3    7.18   43.89   0
  -4 -16   0  -11.72   47.58   0
  -4 -12   2  131.66   49.50   0
  -4  -5   1 1109.18   30.04   0
  -3 -17   0   80.66   52.33   0
  -3  -6   3  350.65   33.77   0
  -2 -13   3  -43.81   57.57   0
  -2 -10   4   -6.48   42.20   0
  -2  -2   1 2511.40   33.90   0
  -1  -4   4  710.16   32.68   0
   0 -14   3   92.45   61.78   0
   0 -12   4  129.15   59.39   0
   0  -9   5   -8.24   52.09   0
   1  -4   5  -11.68   35.30   0
   2 -12   4  252.11   61.85   0
   4 -14   2   48.90   60.06   0
   4  -5   5  106.02   46.13   0
   4  -2   4 1722.19   45.04   0
   5  -9   4    4.06   56.82   0
  -6 -16  -2   11.73   45.45   0
  -6 -14  -1   24.02   45.97   0
  -6  -8  -1  354.31   33.33   0
  -5 -12   1  204.57   48.53   0
  -4  -3  -2  124.85   33.18   0
  -3 -14   2  312.10   55.09   0
  -2 -15   2   92.93   58.77   0
   0  -5   5  384.85   35.18   0
   3  -9   5  125.51   58.35   0
  -3 -16   1   94.09   54.36   0
  -3 -12   3   78.22   50.17   0
  -3  -4   2 3005.79   33.53   0
  -2 -11   4   89.64   54.10   0
  -1 -14   3   72.96   61.15   0
  -1  -8   5  227.66   42.99   0
  -1  -7   5   22.35   40.28   0
   1  -2   4   96.09   29.51   0
   2 -14   3  159.42   63.40   0
   4 -11   4  -13.75   54.85   0
   4  -8   5   69.72   53.11   0
  -7  -9  -3   11.47   37.46   0
  -6 -10   0  186.80   42.04   0
  -5  -5  -1   33.11   29.42   0
  -4 -15   1   57.65   50.91   0
  -4 -13   2  128.98   48.97   0
  -1  -9   5  257.46   44.72   0
   0 -16   2   91.60   60.46   0
   0 -10   5  249.34   54.18   0
   3 -12   4    1.20   59.51   0
   4 -13   3   59.32   59.76   0
   4  -4   5  367.56   42.28   0
  -7 -17  -4   -8.11   41.42   0
  -7 -12  -2  168.48   40.42   0
  -7 -11  -2   18.63   38.84   0
  -6 -15  -1   74.57   45.44   0
  -6  -6  -3  260.75   33.69   0
  -2 -17   1   69.65   54.90   0
  -2  -5   4  274.39   33.74   0
  -1 -16   2 -141.18   57.69   0
  -1  -6   5   30.48   35.68   0
   0 -13   4  130.50   58.71   0
   3 -10   5  -37.18   55.91   0
   3  -3   5   25.47   39.60   0
  -7 -16  -3   69.80   41.78   0
  -7  -8  -4    2.48   37.04   0
  -6  -9   0  242.11   38.27   0
  -4 -10   3  167.85   44.06   0
  -4  -9   3   20.29   37.76   0
  -3 -15   2   40.29   52.40   0
  -3 -13   3  234.37   51.70   0
  -3  -9   4   39.30   39.58   0
  -3  -8   4  353.56   40.73   0
  -3  -5   3  717.61   31.81   0
  -2 -14   3  124.16   56.34   0
  -2 -12   4  198.26   53.68   0
  -1 -10   5  -14.56   53.13   0
   3 -14   3  -29.74   61.44   0
   4  -9   5  -21.90   57.11   0
  -7 -14  -2   93.34   40.98   0
  -7 -10  -2   72.26   38.89   0
  -6 -17  -2   77.99   45.45   0
  -5 -10   2  145.95   44.54   0
  -4 -14   2    2.99   53.22   0
  -4 -11   3   87.40   50.76   0
  -4  -8   3   61.65   35.45   0
  -3 -10   4  145.95   42.65   0
  -1 -13   4  122.03   58.81   0
  -1  -5   5  482.86   37.46   0
   0 -15   3   43.49   60.59   0
   0 -11   5   89.36   54.65   0
   1  -3   5  764.71   33.89   0
   2 -13   4  151.72   59.63   0
   2 -11   5  197.47   56.26   0
  -6  -7  -1   62.01   32.09   0
  -5 -11   2  180.90   48.89   0
  -5  -9   2    1.29   40.80   0
  -4 -16   1  -60.25   46.54   0
  -3  -7   4  254.36   36.77   0
  -2 -16   2 -141.08   54.93   0
  -1 -15   3   97.71   55.17   0
   1  -7   6  220.65   46.32   0
   1  -6   6  669.00   44.24   0
  -7 -15  -2  100.68   43.21   0
  -6 -16  -1    2.91   44.79   0
  -6  -8   0   67.62   35.08   0
  -5 -12   2  113.54   48.82   0
  -4 -12   3   52.36   49.55   0
  -4  -7   3  114.17   33.14   0
  -3 -17   1   40.64   46.59   0
  -3 -11   4  -40.56   49.50   0
  -2  -9   5  -42.99   38.91   0
  -2  -8   5  144.71   39.83   0
  -2  -7   5  265.73   36.27   0
  -2  -3   3  432.71   27.75   0
  -1 -11   5   47.20   51.50   0
  -1  -3   4  787.38   30.82   0
  -1  -2   3 3629.85   34.92   0
   3  -7   6  307.53   55.42   0
   3  -6   6   52.18   46.98   0
   4 -12   4  -75.10   54.33   0
  -8 -14  -4  142.11   39.96   0
  -8 -13  -4   60.02   39.65   0
  -7 -17  -3   20.05   42.21   0
  -5  -4  -3  329.71   35.69   0
  -3 -14   3   66.48   53.48   0
  -3  -6   4  309.01   37.36   0
  -2 -15   3   18.38   55.91   0
  -2 -13   4  -40.27   56.39   0
  -2 -10   5  123.91   52.58   0
   0 -12   5   74.52   57.51   0
   0  -8   6  460.17   49.38   0
   0  -7   6   87.55   39.85   0
   1  -5   6  130.64   37.68   0
   3 -13   4  112.80   58.91   0
   3 -11   5   77.61   54.61   0
   3  -5   6   12.76   43.20   0
   4 -10   5  147.23   53.44   0
   5  -8   5   66.18   54.15   0
  -8 -12  -4    6.96   38.52   0
  -7 -12  -1  -18.91   40.42   0
  -7 -11  -1  179.14   42.25   0
  -7  -9  -2  118.76   35.34   0
  -4 -15   2  -24.85   48.77   0
  -3 -16   2   93.68   53.80   0
  -3 -12   4  -54.29   49.27   0
  -2  -6   5  197.08   34.82   0
  -2  -4   4   29.85   30.33   0
  -1 -14   4   49.03   56.24   0
   0  -9   6   98.31   52.89   0
   0  -6   6  222.73   36.59   0
   0  -2   4 1077.53   29.71   0
   2 -12   5   57.39   58.37   0
   2  -9   6  159.62   52.63   0
   3  -8   6   24.25   54.71   0
  -8 -15  -4   10.09   36.25   0
  -7 -13  -1  129.12   39.69   0
  -7  -8  -3  205.33   36.35   0
  -6  -6  -2   67.69   29.85   0
  -4 -13   3   93.44   51.04   0
  -2 -11   5  -87.25   51.73   0
  -1 -12   5  104.54   58.75   0
  -1  -4   5  260.29   33.35   0
   2 -14   4  118.69   58.44   0
  -7 -16  -2   83.77   40.37   0
  -7 -14  -1   94.43   40.67   0
  -7 -10  -1  170.43   40.22   0
  -6 -17  -1    3.93   42.97   0
  -5  -5   0  447.34   29.72   0
  -4  -6   3  254.73   31.64   0
  -3  -4   3  104.19   28.95   0
  -1  -8   6   -1.92   40.16   0
  -1  -7   6  414.61   41.43   0
   0 -10   6   42.92   54.76   0
   0  -5   6  359.48   34.92   0
   3  -9   6  188.23   54.00   0
   5  -2   4  246.98   44.28   0
  -4 -10   4   -0.77   48.26   0
  -4  -9   4  135.66   39.62   0
  -4  -3  -1   52.41   27.87   0
  -3 -15   3  -61.54   49.68   0
  -3 -13   4   70.30   51.09   0
  -2 -14   4  -12.40   53.34   0
  -2  -2   2 3349.10   32.79   0
  -1 -16   3  -13.98   53.99   0
  -1  -9   6   15.03   49.84   0
   1  -4   6  591.38   34.42   0
   2 -10   6  -12.40   53.91   0
   3  -4   6  114.22   38.05   0
   3  -2   5 2973.19   44.87   0
   4  -6   6   46.91   49.39   0
  -8 -13  -3   55.48   37.91   0
  -6  -7   0  571.81   33.69   0
  -5 -16   1   69.48   46.75   0
  -5 -10   3   18.61   45.52   0
  -4 -14   3   63.28   50.27   0
  -4 -11   4   16.86   48.92   0
  -4  -8   4  148.62   36.10   0
  -3  -9   5  154.88   39.05   0
  -3  -8   5  303.26   39.15   0
  -3  -5   4  128.63   32.02   0
  -3  -3   2  738.12   26.90   0
  -2 -12   5  104.26   51.40   0
  -2  -5   5  104.41   33.65   0
  -1  -6   6   89.18   37.21   0
   3 -12   5   -0.90   56.58   0
   4 -11   5  -61.23   51.32   0
   4  -8   6   17.36   56.76   0
   4  -5   6  844.86   45.78   0
  -8 -14  -3   52.01   36.19   0
  -8 -12  -3  156.91   39.96   0
  -7 -17  -2  -34.74   41.19   0
  -7 -15  -1   12.06   40.86   0
  -5 -11   3   96.42   46.12   0
  -5  -9   3  178.33   38.32   0
  -4 -16   2  -78.18   46.03   0
  -3 -10   5  142.44   48.05   0
  -2 -16   3  -10.65   48.19   0
  -1 -13   5   -3.71   56.24   0
  -1 -10   6  140.19   49.81   0
   0 -11   6  191.36   55.22   0
   0  -1   3  876.14   27.67   0
   2 -13   5   10.29   60.51   0
   3 -10   6  175.17   55.00   0
  -8 -15  -3   11.86   35.54   0
  -7 -12   0   20.07   42.37   0
  -7  -9  -1  129.90   37.01   0
  -7  -8  -2  270.00   35.33   0
  -6  -8   1  218.58   34.01   0
  -5 -12   3   74.56   46.35   0
  -5  -4  -2   27.44   31.39   0
  -4 -12   4  181.76   46.97   0
  -4  -7   4    0.61   35.22   0
  -3 -11   5   59.88   47.88   0
  -3  -7   5  -32.06   36.21   0
  -1 -15   4   25.43   56.71   0
   0  -4   6  -28.43   33.29   0
   1  -2   5   86.32   29.21   0
   2 -11   6  172.86   55.12   0
  -8 -11  -3   69.03   39.39   0
  -7 -13   0   -8.03   38.27   0
  -7 -11   0   81.10   42.22   0
  -6  -6  -1  205.50   31.50   0
  -5 -15   2  -31.79   47.87   0
  -5  -8   3  261.20   36.69   0
  -3 -14   4  -93.16   50.95   0
  -2 -13   5   42.01   56.98   0
  -2  -9   6   55.25   46.13   0
  -2  -8   6  164.82   38.51   0
  -1 -11   6   40.21   52.39   0
  -1  -5   6   42.88   34.84   0
   4  -9   6   36.59   51.83   0
   4  -4   6   80.96   42.75   0
  -8 -16  -3   25.04   37.93   0
  -7 -16  -1   52.25   40.35   0
  -7 -10   0  -19.67   40.12   0
  -5 -13   3   75.50   45.59   0
  -4 -15   3   54.82   43.93   0
  -4  -5   3  486.17   30.77   0
  -3 -16   3   49.13   47.74   0
  -3 -12   5  139.19   52.33   0
  -3  -6   5  206.82   35.46   0
  -2 -15   4  105.24   49.16   0
  -2 -10   6  -39.17   49.03   0
  -2  -7   6  189.20   38.10   0
  -2  -3   4 1111.83   31.93   0
   1  -3   6  893.00   36.13   0
   1  -1   4 2246.68   37.30   0
   2  -8   7  -67.06   52.16   0
   2  -7   7  166.15   49.54   0
   3  -3   6  121.93   38.64   0
   5  -3   5  127.51   45.50   0
  -8 -13  -2   92.45   38.71   0
  -7 -14   0   10.66   39.29   0
  -4 -13   4   12.24   50.00   0
  -4  -4   2   58.37   26.28   0
  -2  -4   5  823.88   33.79   0
  -1 -14   5   33.91   54.00   0
   0  -8   7   76.19   48.62   0
   0  -7   7  115.62   43.52   0
   3 -13   5    0.40   58.15   0
   3 -11   6  -58.96   56.10   0
  -8 -14  -2  -15.22   36.31   0
  -8 -12  -2  -28.02   38.76   0
  -5  -7   3   -9.71   35.30   0
  -4  -6   4  102.46   31.55   0
  -2 -11   6  -49.41   50.38   0
  -2  -6   6    3.48   36.10   0
  -1 -12   6  143.29   56.21   0
  -1  -2   4   90.59   24.66   0
   0  -9   7  110.65   54.60   0
   0  -6   7  386.64   39.39   0
   2 -12   6   67.28   60.72   0
   2  -9   7  -41.92   55.83   0
   3  -7   7  184.36   52.94   0
   3  -6   7   64.40   51.11   0
   4  -1   4  130.99   43.87   0
  -8 -15  -2   24.33   37.93   0
  -7 -15   0   29.37   41.02   0
  -6  -7   1  310.77   32.95   0
  -5 -16   2  -21.37   44.97   0
  -5 -14   3   59.98   44.09   0
  -4 -10   5  263.21   49.57   0
  -4  -9   5  102.84   44.10   0
  -3 -15   4  -38.49   48.94   0
  -3 -13   5   33.38   53.33   0
  -3  -4   4  570.91   30.32   0
  -2 -14   5   67.23   53.31   0
  -1  -8   7  267.80   49.13   0
  -1  -4   6  442.74   34.51   0
   3  -8   7  125.09   52.37   0
   4 -10   6   32.44   49.94   0
  -8 -11  -2   68.45   38.51   0
  -8 -10  -3   -1.65   38.19   0
  -7  -9   0   31.79   39.13   0
  -7  -8  -1   78.26   32.33   0
  -5 -11   4   20.76   47.90   0
  -5 -10   4  132.39   44.92   0
  -5  -9   4   56.87   43.28   0
  -5  -4  -1  429.73   29.74   0
  -4 -16   3   91.00   46.64   0
  -4 -14   4   72.83   47.42   0
  -4 -11   5   22.57   48.02   0
  -4  -8   5   -1.86   37.50   0
  -3  -9   6   66.52   48.17   0
  -1  -9   7   59.82   52.46   0
  -1  -7   7  469.81   39.25   0
   0 -10   7  153.08   52.22   0
   0  -5   7  113.52   37.82   0
   0  -3   6  -18.04   35.64   0
   3  -5   7  339.99   43.06   0
  -7 -13   1   93.86   41.01   0
  -7 -12   1   49.10   41.13   0
  -7 -11   1   40.55   42.41   0
  -7  -7  -3  183.82   35.85   0
  -5 -12   4  -12.17   47.78   0
  -3 -10   6   87.26   48.87   0
  -3  -8   6   38.65   37.98   0
  -3  -5   5  323.55   34.43   0
  -3  -3   3  247.68   26.46   0
  -2 -12   6  231.35   54.07   0
  -2  -5   6  536.68   34.18   0
  -2  -2   3   13.70   23.79   0
  -1  -6   7  -11.96   38.08   0
   1  -4   7  270.75   36.86   0
   2 -10   7   41.10   54.28   0
   3  -9   7   -0.13   53.83   0
  -8 -16  -2   41.10   36.63   0
  -7 -16   0  -81.67   39.19   0
  -4 -12   5   93.06   49.98   0
  -4  -7   5  363.18   35.82   0
  -3 -11   6   37.03   51.49   0
  -3  -7   6  152.90   37.77   0
  -1 -13   6  -48.85   52.08   0
  -1 -10   7  -82.83   51.19   0
   3 -12   6   28.25   59.39   0
  -8 -14  -1    7.59   38.64   0
  -8 -13  -1   32.19   36.63   0
  -8 -12  -1  188.44   39.51   0
  -7 -14   1   30.83   40.17   0
  -7 -10   1   58.35   39.84   0
  -5 -13   4  167.57   47.17   0
  -3 -14   5   44.09   50.99   0
   2 -13   6  -54.41   57.80   0
   3  -4   7  258.76   43.07   0
   4  -7   7   68.61   53.94   0
   4  -6   7  181.02   52.30   0
  -8 -10  -2   92.33   40.02   0
  -4 -15   4  -20.90   44.42   0
  -4 -13   5  -15.98   51.77   0
  -4  -5   4  570.61   32.11   0
  -3  -2   1   26.16   25.62   0
  -2 -15   5   52.40   50.40   0
  -2 -13   6   10.08   51.23   0
  -2  -9   7   44.30   49.99   0
  -2  -8   7  -54.66   42.75   0
  -2  -7   7  222.44   38.98   0
  -1 -11   7 -135.28   56.27   0
  -1  -5   7  254.24   37.42   0
   0  -4   7  110.78   35.22   0
   0  -1   4  395.20   28.36   0
   2 -11   7  150.94   57.78   0
   3 -10   7  -85.47   54.46   0
   4  -8   7  -38.80   53.27   0
  -8 -11  -1  115.61   39.01   0
  -7 -15   1  -40.31   42.33   0
  -7  -8   0  403.93   36.13   0
  -7  -7  -2    5.93   35.15   0
  -5  -4   0  447.93   28.92   0
  -4  -4   3  715.75   29.23   0
  -3 -12   6  -93.11   51.42   0
  -3  -6   6  528.94   36.52   0
  -2 -10   7   43.00   49.15   0
  -2  -3   5  420.49   30.98   0
   1  -2   6  207.73   33.40   0
   3  -2   6  154.16   38.83   0
  -7  -9   1  211.90   41.03   0
  -5 -14   4    3.89   46.85   0
  -4  -6   5  152.66   33.26   0
  -2  -6   7  249.64   39.04   0
  -2  -4   6 1564.78   36.36   0
  -1 -14   6   54.88   56.03   0
  -1  -3   6 1186.28   35.54   0
   0  -8   8  111.48   54.94   0
   0  -7   8   12.40   50.51   0
   1 -12   7   -6.43   61.53   0
   2  -7   8  168.47   52.25   0
  -8 -16  -1  -33.91   38.31   0
  -7 -12   2  -31.30   41.28   0
  -7 -11   2  -15.95   44.54   0
  -6  -6   1   69.19   30.85   0
  -4 -10   6   -1.39   46.14   0
  -4  -9   6   91.40   48.01   0
  -3 -15   5   26.44   51.41   0
  -3 -13   6   51.84   53.42   0
  -2 -11   7  100.81   54.90   0
  -2  -1   0  174.33   24.39   0
  -1  -1   3   78.92   24.00   0
   0  -9   8  -47.47   55.20   0
   0  -6   8   76.24   46.93   0
   1  -3   7   15.78   36.41   0
   2  -8   8  102.08   54.79   0
   2  -6   8   16.96   47.98   0
   4  -9   7   61.48   50.82   0
  -8 -13   0  104.20   39.84   0
  -7 -16   1  -69.50   41.89   0
  -7 -13   2   95.17   40.62   0
  -5 -11   5    1.33   46.18   0
  -5  -9   5  151.84   45.27   0
  -4 -14   5   50.94   46.50   0
  -4 -11   6  130.44   49.53   0
  -4  -8   6  325.33   43.03   0
  -2 -14   6  186.18   52.15   0
  -1  -8   8  163.19   52.72   0
  -1  -4   7  364.24   39.35   0
   1  -1   5 1501.75   34.42   0
   2  -9   8  -22.32   54.19   0
   3 -11   7   73.48   59.03   0
   4  -4   7  157.96   43.36   0
  -8 -12   0  -15.03   40.36   0
  -8 -10  -1  -98.96   39.65   0
  -7 -14   2   39.17   43.22   0
  -7 -10   2  128.60   41.97   0
  -7  -7  -1  531.44   35.08   0
  -5 -12   5  112.68   48.98   0
  -3 -10   7   71.79   47.87   0
  -3  -9   7  -72.77   49.02   0
  -3  -8   7   94.30   44.71   0
  -3  -5   6  115.94   35.19   0
  -3  -3   4   23.16   29.27   0
  -2 -12   7  -65.85   57.24   0
  -2  -5   7  194.17   39.51   0
  -2  -2   4 2475.03   32.55   0
  -1  -9   8  219.85   53.70   0
  -1  -7   8  -12.09   47.02   0
   0  -2   6   21.74   35.38   0
   2 -12   7  -11.56   57.39   0
   3  -7   8   64.48   50.97   0
   3  -6   8   20.20   54.43   0
  -8 -11   0  -56.80   41.59   0
  -7  -8   1   59.21   41.02   0
  -5  -6   4  122.84   37.26   0
  -4 -12   6  -79.90   51.26   0
  -4  -7   6   52.66   37.31   0
  -3  -7   7   98.75   39.63   0
  -1  -6   8  551.83   43.44   0
   0  -5   8  137.75   41.24   0
   0  -3   7 1267.75   37.29   0
   3  -8   8  -20.79   53.29   0
  -8 -15   0   56.55   39.51   0
  -7  -9   2  -33.70   43.46   0
  -5 -13   5  129.31   44.92   0
  -4  -5   5   53.00   32.88   0
  -4  -3   2  397.99   29.96   0
  -3 -14   6   26.44   53.03   0
  -3 -11   7  124.04   51.67   0
  -3  -2   2 2356.38   32.69   0
  -1 -13   7    1.51   55.85   0
  -1 -10   8  -15.81   55.47   0
   1 -13   7  -39.51   54.30   0
   2 -10   8   42.63   56.00   0
   3  -5   8   61.25   52.47   0
  -6  -6   2  299.47   34.45   0
  -4 -13   6  -84.26   51.13   0
  -4  -4   4    9.16   30.96   0
  -2  -9   8   70.57   52.06   0
  -2  -8   8   93.00   51.12   0
  -2  -1   1 3650.64   38.76   0
   1 -11   8  -88.93   61.71   0
   3  -9   8   80.49   54.62   0
  -7 -12   3  160.77   45.54   0
  -4  -6   6  272.51   36.75   0
  -3 -12   7   56.72   51.96   0
  -3  -6   7   21.33   40.20   0
  -2 -13   7   31.98   49.83   0
  -2 -10   8  195.89   58.04   0
  -2  -7   8  315.23   44.40   0
  -2  -3   6   -2.44   34.83   0
  -1  -5   8  218.69   39.44   0
   0  -4   8   85.35   39.89   0
  -7 -11   3   87.10   43.54   0
  -5 -14   5   15.44   47.63   0
   0  -1   5  742.18   31.00   0
  -5 -11   6  -19.79   50.15   0
  -5  -9   6   85.54   47.79   0
  -4 -10   7  133.10   51.25   0
  -4  -9   7  148.67   48.49   0
  -3  -4   6  156.79   34.80   0
  -2  -6   8  -13.90   41.33   0
  -1  -3   7   81.67   37.23   0
  -1  -2   6  191.12   33.49   0
  -1  -1   4 4056.88   36.76   0
  -1  -1 -11  -12.33   43.29   0
   1  -3 -13  199.81   48.90   0
   3  -2 -16  112.67   63.15   0
   4  -5 -10    5.27   54.63   0
   4  -5  -9  101.61   45.38   0
   4  -1 -17   -3.18   61.10   0
   5  -5 -10  194.65   53.85   0
   6  -1 -17  -13.37   63.19   0
   8  -4 -10  -39.77   63.33   0
   8  -4  -9  -25.42   65.08   0
   8  -4  -8  -34.77   60.34   0
  10  -2  -4  110.56   57.05   0
  10   0   1   93.55   54.91   0
  12   0  -4  -60.45   59.01   0
   0  -3 -10  476.92   38.52   0
   1  -4  -9   48.69   37.58   0
   1  -3  -4 9970.77   47.40   0
   1  -1   0 1814.57   34.80   0
   4  -5 -11  292.32   52.83   0
   5  -5 -11  -14.85   55.04   0
   6  -4  -4  128.39   45.60   0
   7  -4 -13  -57.85   70.44   0
   7  -4  -5  100.60   46.13   0
   8  -4 -11 -130.17   62.60   0
   8  -4  -7   46.66   61.35   0
   9  -3 -12 -111.42   65.36   0
   9  -2 -14  -50.91   64.14   0
  10  -2 -12 -123.42   59.82   0
  10  -1  -1   28.46   55.03   0
  11  -1  -3  111.97   56.17   0
   0  -3  -7  974.23   35.42   0
   1  -4  -8  436.96   35.47   0
   3  -5 -10  271.29   43.83   0
   3  -5  -9  177.25   43.60   0
   3  -4  -4  424.93   32.66   0
   6  -5 -10    5.96   53.99   0
   6  -4 -14   42.40   66.25   0
   8  -3 -14  112.40   58.21   0
   8   0   3   38.88   49.26   0
  12   0  -3   51.22   55.20   0
   2  -4  -5  521.09   30.76   0
   3  -5  -8  247.53   37.92   0
   3  -4 -14   41.32   55.29   0
   4  -5  -7   10.57   37.15   0
   5  -5  -7  159.80   40.46   0
   6  -5 -11  112.23   61.29   0
   6  -5  -8   43.71   44.41   0
   8  -4  -6   27.63   55.69   0
   9  -3  -4   -8.34   50.44   0
   2  -4 -13   36.96   47.31   0
   3  -5 -11  -40.27   46.79   0
   4  -5 -12   -5.76   54.47   0
   4  -3  -1  216.81   29.82   0
   5  -4  -3  277.57   36.37   0
   5  -3 -16   60.58   58.71   0
   5  -2   1  205.00   35.03   0
   6  -5  -7  136.07   44.68   0
   8  -4 -12  103.02   61.21   0
   9  -3 -13   52.28   59.19   0
  10  -3 -10   55.75   57.22   0
  10  -3  -9   68.76   53.96   0
  10  -3  -8  -22.94   56.33   0
  11  -2 -10  132.70   58.16   0
  11  -2  -6   22.20   55.32   0
  11   0   0    0.77   48.82   0
  12  -1  -7  -20.35   52.11   0
   1  -4  -7   18.17   28.31   0
   3  -5  -7  380.54   35.46   0
   4  -5  -6  772.01   38.17   0
   4  -3 -16   -0.14   54.09   0
   5  -5  -6   78.85   40.19   0
   6  -3 -16  -66.34   58.53   0
   6  -2   1  348.38   39.45   0
   7  -5  -9  -12.42   57.55   0
   7  -4 -14  -80.37   60.24   0
   8  -3  -2   60.66   48.64   0
   9  -4  -9 -138.42   61.84   0
   9  -4  -8  -17.41   57.27   0
   9  -1   1   45.15   50.77   0
  10  -3 -11   83.67   55.00   0
  11  -2  -5  -35.13   53.57   0
  12  -1  -6  -40.44   50.24   0
  12   0  -2  -20.30   49.28   0
   0  -3 -11   37.73   34.43   0
   0  -3  -6  194.75   27.27   0
   0  -2 -13  256.74   41.74   0
   2  -3 -15  262.16   51.40   0
   3  -5 -12  177.91   48.21   0
   4  -5 -13   66.77   62.32   0
   4  -4 -15  -30.53   59.27   0
   5  -5 -13  124.34   63.19   0
   5  -2 -17  -21.04   53.23   0
   6  -5  -6  315.38   43.11   0
   6  -2 -17  -34.90   58.26   0
   7  -5  -8  180.01   52.44   0
   8  -4 -13  -70.84   64.04   0
   8  -3 -15   31.01   61.80   0
   9  -4 -10   89.12   61.25   0
   9  -4  -7 -150.25   55.25   0
   9  -3  -3   34.33   54.14   0
  10  -1   0   35.78   52.71   0
  12  -1  -5  -30.19   56.25   0
  -1  -2  -8   33.77   27.93   0
   2  -5 -10   22.68   37.92   0
   2  -3  -2 1738.23   27.57   0
   4  -2 -17  -23.93   49.46   0
   6  -5 -13  -87.15   61.28   0
   7  -5 -12   26.90   59.38   0
   7  -5  -7   -3.26   51.46   0
   7  -3  -1   96.28   39.93   0
   9  -4 -11   -2.86   59.83   0
   9  -3 -14   25.31   55.98   0
  10  -3 -12    5.02   53.32   0
  10  -3  -5   25.45   56.40   0
  10  -2  -2  -44.35   53.55   0
   1  -4 -12  116.33   36.19   0
   2  -4 -14  208.24   51.65   0
   2  -2 -16   -4.38   49.18   0
   3  -5  -6   55.07   32.86   0
   3  -4 -15  176.48   56.27   0
   5  -5  -5 1255.45   38.54   0
   7  -4 -15   49.04   65.01   0
   7  -2   1   20.13   42.21   0
   8  -4 -14  -64.77   57.32   0
   9  -4 -12   81.57   58.90   0
  11  -2  -4   -1.01   53.56   0
  12  -1  -4   73.15   54.88   0
  -1  -2  -7  873.72   30.75   0
   1  -4  -6 1568.42   29.66   0
   1  -3 -14  147.62   44.59   0
   1  -2 -15  117.53   46.83   0
   2  -4  -4  275.90   26.52   0
   3  -4  -3  888.57   29.91   0
   4  -5  -5  -30.22   37.13   0
   5  -5 -14 -105.64   60.20   0
   6  -5 -14  125.17   62.55   0
   6  -5  -5    2.21   45.29   0
   6   0   4    3.54   42.59   0
   7  -5 -13   95.04   60.99   0
   7  -5  -6  143.38   47.74   0
   8  -5 -11  231.16   62.53   0
   8  -5 -10  124.45   56.81   0
   8  -5  -9  -88.29   52.80   0
   8  -5  -8   74.74   56.56   0
  11  -1  -1   68.82   52.33   0
   0  -3 -12   96.14   34.06   0
   5  -4 -16    2.01   55.21   0
   9  -4 -13  -60.00   57.98   0
  10  -3  -4   22.27   48.86   0
  -1  -2 -10  262.03   32.62   0
   2  -5  -7  193.39   30.50   0
   4  -6 -10  165.99   41.66   0
   4  -4 -16   48.35   51.42   0
   5  -6 -11  181.27   49.18   0
   5  -6 -10    5.70   44.09   0
   5  -6  -9  317.14   42.76   0
   5  -3 -17   -7.17   48.91   0
   5   0   4 1038.38   45.01   0
   6  -3 -17   46.31   51.98   0
   8  -5 -12  129.58   58.48   0
   8  -5  -7  153.65   54.56   0
   8  -3  -1  142.34   52.44   0
   9  -2   0  350.13   52.66   0
  10  -4 -10  139.77   54.52   0
  10  -4  -9   12.30   59.68   0
  11  -3 -10  -28.86   54.87   0
  11  -3  -7   31.69   55.58   0
  11  -2  -3  -33.25   49.43   0
  12  -1  -3   90.34   51.79   0
   1  -4 -13   92.98   37.06   0
   1  -3  -3 2561.89   27.16   0
   4  -6 -11  -26.32   43.60   0
   4  -6  -9   97.94   40.34   0
   4  -3 -17   86.90   48.35   0
   5  -6 -12  121.65   54.64   0
   5  -6  -8  -36.15   40.85   0
   6  -6 -11  135.06   55.94   0
   6  -6 -10  221.63   51.39   0
   6  -6  -9  -11.89   46.32   0
   7  -5 -14   21.42   60.01   0
   7  -5  -5   76.28   48.26   0
   8  -4 -15   -2.31   56.34   0
  10  -4 -11   12.79   51.97   0
  10  -2  -1  146.88   53.66   0
  12  -2  -7   28.20   49.33   0
   2  -2   0 1755.55   28.11   0
   3  -5  -5  141.15   30.47   0
   4  -6 -12  157.88   49.59   0
   4  -6  -8   99.64   36.18   0
   4  -4  -2  543.96   31.33   0
   5  -5  -4   35.76   37.32   0
   6  -6 -12   57.87   53.54   0
   6  -6  -8  246.69   42.90   0
   6  -3   0  681.31   39.38   0
   7   0   4  330.04   45.35   0
   8  -5 -13   54.43   56.33   0
   8  -4  -3   35.74   47.42   0
   9  -4 -14  119.21   48.92   0
  11  -3  -6   99.17   55.59   0
   0  -3  -5 1524.10   27.30   0
   1  -4  -5 1837.39   27.78   0
   2  -5  -6  349.60   28.40   0
   2  -4 -15   76.62   43.84   0
   2  -3 -16  -27.81   45.23   0
   3  -6 -11  144.21   39.99   0
   3  -6  -9  581.85   36.06   0
   3  -4 -16   75.94   49.65   0
   5  -6 -13   34.20   56.22   0
   5  -6  -7  373.71   42.15   0
   6  -5  -4  187.83   43.58   0
   7  -6 -11   40.14   57.62   0
   7  -6 -10   41.95   52.68   0
   7  -4  -2  -39.31   43.53   0
   9  -5 -11  167.24   58.04   0
   9  -5 -10   34.20   59.86   0
   9  -5  -9  -71.82   55.84   0
   9  -5  -8  -94.34   55.91   0
   9  -4  -4   57.30   52.79   0
  10  -4 -12  -14.89   47.34   0
  10  -4  -6 -167.79   56.82   0
  10  -3  -3  127.18   49.55   0
   3  -6 -12  153.27   48.69   0
   3  -3 -17   68.18   45.79   0
   4  -6 -13  248.31   55.06   0
   6  -6 -13  130.76   55.80   0
   6  -6  -7   26.79   44.77   0
   6  -1   3  747.82   42.01   0
   7  -6 -12  169.71   59.27   0
   7  -6  -9    4.01   53.35   0
   7  -5 -15  -25.56   56.69   0
   7  -3   0  -18.96   45.55   0
   8  -5 -14  -59.89   51.83   0
   9  -5 -12   33.19   57.37   0
  11  -3  -5   53.99   54.51   0
  12  -2  -5   94.65   52.36   0
  -1  -2 -11   65.55   34.35   0
   0  -4 -10   67.35   28.62   0
   0  -3 -13   99.83   36.23   0
   1  -3 -15   74.32   41.84   0
   2  -5 -14  219.14   46.53   0
   3  -6  -8  148.41   34.09   0
   3  -5 -15  138.84   52.33   0
   5  -6 -14  176.31   60.61   0
   5  -5 -16 -165.10   56.97   0
   5  -4 -17   15.78   51.82   0
   5  -1   3   43.88   36.18   0
   6  -4 -17   94.74   52.97   0
   7  -6  -8   93.95   52.52   0
  11  -2  -2  192.49   49.97   0
   1  -5  -8  348.47   30.57   0
   1  -4 -14   29.72   39.79   0
   4  -5 -16  -36.26   54.07   0
   4  -4 -17   46.12   48.93   0
   5  -3 -18   57.55   47.44   0
   6  -6 -14   76.34   58.46   0
   7  -6 -13   72.02   59.73   0
   9  -5 -13   59.82   56.28   0
  10  -4  -5   78.92   50.98   0
   0  -4 -11  245.50   30.70   0
   1  -5 -12  405.42   36.22   0
   2  -4  -3   -0.15   23.30   0
   5  -6  -6  194.63   36.69   0
   6  -6  -6  172.15   45.71   0
   7  -6  -7   97.43   50.04   0
   7  -4 -17  -27.19   51.96   0
   7  -1   3   20.22   43.63   0
   8  -6 -11   33.26   59.15   0
   8  -6 -10  -43.74   57.81   0
   8  -6  -9  -13.28   56.08   0
   8  -5 -15  -74.94   57.95   0
   9  -3  -1  157.14   51.36   0
  11  -3  -4   79.95   51.83   0
  12  -2  -4  -39.55   51.28   0
   2  -6 -10  559.80   33.51   0
   3  -6  -7  328.62   33.05   0
   3  -5  -4 1284.77   30.10   0
   3  -4  -2  175.86   24.91   0
   5  -5  -3  233.77   36.56   0
   7  -6 -14   75.28   57.45   0
   8  -6 -12   23.56   57.21   0
   8  -4  -2  258.81   51.09   0
   9  -4  -3   80.81   51.71   0
  10  -3  -2   78.13   52.68   0
   0  -4  -7  734.51   27.21   0
   1  -5  -7 1480.37   31.31   0
   2  -5  -5   60.43   26.56   0
   2  -4 -16  127.51   44.85   0
   3  -5 -16   79.06   46.67   0
   3  -4 -17  -19.74   46.90   0
   6  -6 -15  128.38   53.81   0
   6  -4  -1  194.32   39.00   0
   8  -6 -13   57.52   53.67   0
   8  -6  -8  100.67   52.24   0
   9  -5 -14   78.80   48.14   0
  10  -5 -11  -82.85   55.46   0
  10  -5 -10  -23.88   52.25   0
  10  -2   0   41.65   50.96   0
   0  -4 -12  143.64   31.47   0
   1  -5 -13   64.58   36.01   0
   2  -5 -15   74.47   44.66   0
   4  -7 -11   40.62   43.05   0
   5  -7 -12  121.86   52.83   0
   5  -7 -11  186.32   50.29   0
   5  -7 -10   49.18   42.49   0
   5  -5 -17  123.29   54.38   0
   6  -7 -11  -13.56   55.97   0
   6  -5 -17   78.79   57.66   0
   7  -6  -6    2.92   48.37   0
   8  -5  -4   42.73   48.30   0
   8  -3   0  226.53   46.48   0
  10  -5 -12 -106.67   51.20   0
  10  -4  -4    6.93   48.59   0
  11  -4  -7  -87.69   53.62   0
   0  -3 -14   40.03   39.50   0
   1  -4 -15   30.22   42.86   0
   1  -4  -4   44.62   22.46   0
   2  -3  -1  988.44   24.72   0
   3  -6  -6  189.21   33.09   0
   4  -7 -12  347.62   49.76   0
   4  -7 -10  310.23   39.48   0
   4  -5  -3  435.37   31.45   0
   5  -7 -13  143.41   56.07   0
   5  -7  -9  186.87   40.62   0
   5  -6  -5  103.83   34.82   0
   5  -4 -18  118.69   49.58   0
   6  -7 -12  -98.68   53.26   0
   6  -7 -10  173.42   52.60   0
   6  -6  -5  191.14   44.34   0
   6  -4 -18  -56.94   46.90   0
   7  -6 -15   62.54   52.50   0
   8  -6 -14   15.92   55.81   0
   8  -6  -7    0.76   51.12   0
   9  -5  -5   79.20   51.67   0
  12  -3  -6   54.07   49.70   0
   3  -6 -15  -56.18   49.58   0
   4  -7 -13   26.40   55.10   0
   4  -7  -9   63.34   38.07   0
   4  -5 -17  -15.29   48.36   0
   6  -7 -13 -158.67   56.91   0
   6  -7  -9  201.75   51.03   0
   7  -7 -11   21.99   57.52   0
   7  -4  -1  223.67   40.96   0
   9  -6 -12   97.63   54.49   0
   9  -6 -11   28.34   50.36   0
   9  -6 -10   49.90   53.22   0
   9  -6  -9   39.85   54.17   0
  11  -4  -6    1.14   51.68   0
  11  -3  -3   57.07   48.22   0
  -1  -3  -9  168.09   27.59   0
   0  -4 -13    9.81   32.97   0
   0  -3  -4   21.30   21.59   0
   1  -5 -14   67.11   41.84   0
   3  -7 -11  263.63   41.28   0
   4  -6 -16   65.01   52.48   0
   4  -6  -5  524.95   33.88   0
   5  -7 -14   39.97   58.59   0
   5  -7  -8  304.41   39.77   0
   6  -7  -8  115.11   50.53   0
   7  -7 -12   -1.90   55.95   0
   7  -7 -10  -22.52   52.02   0
  -1  -3 -10   10.47   27.00   0
   1  -5  -6 1280.75   28.07   0
   2  -6 -14   -1.57   42.30   0
   2  -6  -7  229.39   30.36   0
   3  -7 -12  -28.44   42.89   0
   3  -7 -10  -29.16   37.20   0
   3  -3   0   54.07   26.95   0
   4  -7 -14  168.13   57.59   0
   4  -7  -8   57.42   36.59   0
   6  -7 -14  157.22   58.35   0
   7  -7 -13    7.89   58.64   0
   7  -7  -9  156.70   51.47   0
   8  -6 -15  108.26   52.67   0
   9  -6 -13  -53.69   52.05   0
   9  -4  -2    9.08   48.78   0
  10  -5  -6   51.38   52.90   0
  12  -3  -5 -100.32   49.64   0
  -1  -3  -8   92.84   24.62   0
   0  -4  -6  782.04   24.96   0
   2  -5 -16  162.63   45.84   0
   2  -4 -17   98.23   44.70   0
   3  -7 -13  120.13   48.46   0
   3  -7  -9  188.74   35.75   0
   3  -5 -17   37.90   46.03   0
   5  -7 -15 -146.57   56.89   0
   6  -3   1   87.54   37.13   0
   7  -7 -14 -172.91   59.70   0
   8  -5  -3    0.15   50.62   0
   9  -5  -4   -5.71   52.87   0
  10  -4  -3  -70.03   52.15   0
  11  -4  -5   96.36   51.13   0
   1  -6 -10   -0.63   31.13   0
   2  -5  -4  358.75   25.83   0
   3  -6 -16  112.56   46.99   0
   3  -5  -3  350.62   28.12   0
   5  -7  -7   40.93   38.96   0
   5  -6 -17  -28.80   54.08   0
   5  -5 -18   58.13   49.60   0
   5  -3   1  478.30   35.45   0
   6  -7 -15   19.25   54.35   0
   6  -7  -7   75.45   46.54   0
   6  -5 -18   -8.67   50.15   0
   7  -7  -8  113.80   51.01   0
   8  -7 -12  230.04   55.15   0
   8  -7 -11  194.94   57.50   0
   8  -7 -10   97.99   60.16   0
   8  -4  -1    7.47   47.35   0
   9  -6 -14   41.56   50.97   0
  10  -3  -1   73.92   49.66   0
   2  -6 -15   56.45   46.28   0
   3  -7  -8  416.28   33.69   0
   3  -6  -5   99.14   30.57   0
   4  -7  -7  215.17   36.09   0
   4  -6 -17   88.54   51.17   0
   8  -7 -13  200.34   54.75   0
   8  -7  -9  117.73   56.61   0
   2  -7 -11   93.68   39.81   0
   2  -6  -6   96.30   29.06   0
   2  -4  -2 2011.93   27.69   0
   7  -7 -15  -30.78   51.66   0
   7  -7  -7  -58.75   53.18   0
  10  -6 -11  -45.00   52.81   0
  10  -5  -5   46.92   48.21   0
   2  -7 -12  167.89   38.72   0
   2  -7 -10  180.33   32.38   0
   4  -6  -4   -9.33   31.99   0
   5  -8 -12   -6.21   51.57   0
   5  -8 -11   67.90   51.80   0
   5  -7  -6  250.94   39.51   0
   8  -7 -14  -45.68   53.65   0
   8  -7  -8   40.77   53.65   0
   9  -6  -6  -31.55   51.24   0
   1  -6  -8   40.81   28.89   0
   1  -5  -5 1342.01   27.26   0
   2  -7  -9  855.15   33.70   0
   4  -8 -12   11.85   48.71   0
   4  -8 -11  218.43   42.44   0
   5  -8 -13   22.37   53.38   0
   5  -8 -10  382.80   46.66   0
   6  -8 -12   25.51   54.20   0
   6  -8 -11  -41.77   52.65   0
   6  -7  -6   50.97   43.87   0
  -9   0  12   -0.61   44.21   0
  -7   2  12  174.48   48.36   0
  -5   0  17    7.00   51.13   0
  -5   2  15  241.86   55.45   0
  -3   3  14  124.97   61.31   0
  -2  -2  18   89.70   57.19   0
  -2   3   5 1888.91   36.56   0
  -2   3  14   19.17   56.29   0
   0   3   7  975.77   32.76   0
   0   3  12  170.65   43.24   0
   1   2  13   15.82   47.45   0
   2  -4  15   43.29   49.10   0
   2  -3  15   57.17   49.59   0
   3  -2  13   25.16   49.60   0
   3   0  11  479.96   39.26   0
  -7   2   6   61.14   46.27   0
  -6   3  10  306.59   53.39   0
  -4  -1  18    9.86   54.30   0
  -4   3  14   93.99   59.50   0
   1  -1  16   56.38   54.42   0
   2  -2  15   36.22   49.59   0
   2   0  14   76.64   46.54   0
  -8   1  13   13.52   47.15   0
  -7   0  16  -22.61   47.15   0
  -6   2   4   52.06   41.39   0
  -6   3   9  -15.97   48.81   0
  -6   3  11  106.60   50.44   0
  -5   2   3  239.27   39.29   0
  -5   3   6  233.67   40.25   0
  -4   2  16  200.67   63.16   0
  -1   3  14  218.34   50.65   0
   0   3  13  131.26   45.97   0
   1   2   5 4217.83   39.27   0
   2   2  10  177.22   36.26   0
  -7   1  15   -0.73   48.44   0
  -7   2  13   29.00   44.92   0
  -6   3   8  273.36   44.41   0
  -4   3   5  758.80   37.57   0
  -3   3  15   38.13   63.10   0
  -3   4   9  223.41   38.89   0
  -3   4  10  222.47   39.82   0
  -3   4  11  622.44   43.46   0
  -2   3  15  248.62   62.82   0
  -2   4   9   28.90   39.07   0
  -2   4  10  472.95   40.91   0
  -2   4  11  237.12   42.08   0
  -1   2  16   36.60   56.35   0
   2  -1  15   37.13   47.68   0
   3  -1  13  -73.26   48.28   0
  -9   0  13  -49.81   42.29   0
  -8   0  15   22.01   40.79   0
  -6   3  12  -97.56   50.02   0
  -5   1  17  -64.55   54.26   0
  -5   2  16  -35.96   53.50   0
  -4   0  18   -4.27   52.90   0
  -4   3  15  240.91   60.19   0
  -3   4  12   54.90   45.73   0
  -2   4  12  655.89   45.56   0
   1   2  14  172.87   47.61   0
   1   3  10   -4.10   35.82   0
   1   3  11  498.45   41.30   0
   2   2  11  112.69   38.40   0
   3   0  12   52.79   44.79   0
  -1   3   5   33.43   25.36   0
  -1   3  15   60.13   60.91   0
  -1   4  10  357.49   38.18   0
  -1   4  11  167.78   40.16   0
   0   3   6  168.40   28.02   0
   0   3  14   15.28   44.83   0
   3  -3  14   37.68   45.99   0
  -8   1  14    1.75   43.93   0
  -7   2  14   78.79   44.96   0
  -6   3   7   40.40   40.76   0
  -6   3  13  268.38   50.01   0
  -4   4  12   17.76   46.41   0
  -3   2  17   38.16   62.06   0
  -3   4   8 1216.91   39.79   0
  -3   4  13  459.12   51.10   0
  -2   4   8   36.23   34.58   0
  -2   4  13  -38.00   45.80   0
  -1   4   9   35.51   35.53   0
  -1   4  12  105.46   43.44   0
   1  -3  17  -14.18   51.84   0
   1  -2  17   39.88   53.28   0
   1   3   8   85.56   32.50   0
   1   3  12  218.48   38.09   0
   2   0  15   36.14   51.02   0
   2   2   7  408.22   29.66   0
   3   1  10  149.73   35.65   0
  -8   2   9   16.72   46.00   0
  -8   2  10    4.95   47.99   0
  -7   1  16   10.53   47.42   0
  -4   1  18  -85.80   51.73   0
  -4   2  17   -1.98   58.39   0
  -4   4  13   -5.34   54.20   0
  -3   3  16  276.80   60.92   0
   0  -2  18   34.18   51.58   0
   1  -1  17    1.66   57.61   0
   2  -3  16   24.77   48.85   0
   2  -2  16   96.40   50.90   0
   3   0  13  243.77   47.78   0
   3   1  11  110.26   37.44   0
  -8   2   8  -17.20   45.63   0
  -8   2  11   66.81   44.33   0
  -7   2   5  169.03   42.38   0
  -6   3  14   83.86   49.63   0
  -4   3  16   -2.69   61.46   0
  -3   4  14  -10.78   57.31   0
  -2   4  14  240.62   50.80   0
  -1   2  17   79.97   61.94   0
   0  -1  18    5.62   53.76   0
   0   3  15  178.56   56.60   0
   1   2  15  122.67   49.85   0
   1   3  13  155.82   41.13   0
   3  -1  14  116.86   48.04   0
  -8   2  12   25.54   43.81   0
  -5   1  18  -31.36   54.98   0
  -5   2  17  115.54   54.67   0
  -5   4  10  324.13   44.73   0
  -4   4  14  124.48   57.53   0
  -1   1  18   91.55   56.41   0
  -1   3  16  106.71   57.65   0
  -1   4  14    7.71   47.01   0
   0   4  10   98.57   36.41   0
   0   4  11  226.41   39.00   0
   0   4  12  148.37   41.47   0
   1   0  17  119.82   56.93   0
   2  -1  16    5.35   48.39   0
   4  -2   4 1814.81   54.78   0
  -8   1  15  -38.94   41.79   0
  -7   2  15  145.28   45.82   0
  -7   3  10    6.02   46.64   0
  -7   3  11   61.08   45.23   0
  -5   3   5  262.31   36.62   0
  -5   4   9   35.62   39.68   0
  -3   2  18  -89.11   59.67   0
  -3   4  15  305.38   60.34   0
  -2   4   7  557.33   32.28   0
  -2   4  15   82.06   63.71   0
   0   4   9 3437.00   42.07   0
   1   3   7   10.53   29.35   0
   1   3  14  126.13   48.40   0
   2   1  15  -78.11   45.61   0
   3   1  12  267.48   39.39   0
   4  -1   6  411.33   38.29   0
  -8   2  13   19.88   41.12   0
  -7   3   9  189.25   45.35   0
  -7   3  12    0.88   44.95   0
  -6   3  15   39.35   50.14   0
  -4   2  18   54.56   53.63   0
  -3   3  17  -29.10   64.28   0
  -2   2  18   23.65   57.96   0
  -2   3   4  349.65   31.94   0
  -2   3  17   54.00   59.92   0
   0   4  13   25.21   44.61   0
   2   0  16  -15.38   46.17   0
  -7   3  13   45.94   44.54   0
  -6   3   6   48.86   36.95   0
  -4   3  17   46.17   58.30   0
  -4   4  15   93.68   54.51   0
  -2   2   2  145.55   28.99   0
  -1   4   7   38.70   32.49   0
  -1   4  15   33.37   55.62   0
   0   3  16  -64.12   54.03   0
   2   2   6 1503.71   31.48   0
   3  -2  15   95.41   45.39   0
   3   0  14  148.99   44.35   0
   3   1  13  233.59   43.22   0
  -7   3   8   42.32   44.32   0
  -5   4   8   42.49   39.76   0
  -3   4  16   37.40   59.23   0
  -2   4  16  132.09   61.37   0
  -1   2  18   66.03   58.96   0
  -1   3  17   87.47   58.54   0
   0   4   8   31.62   32.91   0
   0   4  14  293.66   44.61   0
   1  -2  18  -14.41   52.59   0
   1   3  15  -61.10   52.42   0
   2   3  10  631.04   36.74   0
   2   3  11  305.81   36.50   0
  -7   2  16  -53.15   41.69   0
  -5   2  18 -103.78   51.03   0
  -4   2   2  320.35   36.42   0
  -4   3   4   18.61   33.88   0
  -2   5  12   58.70   43.29   0
   0   2   3  449.80   24.75   0
   0   3   5 1488.85   28.37   0
   1  -1  18   97.59   51.87   0
   1   2   4 1096.27   27.88   0
   2  -2  17   19.92   53.69   0
   2   3  12  242.21   38.57   0
   3  -1  15   12.96   46.62   0
   4  -1  12  157.58   44.68   0
   4   0   9   51.31   35.30   0
  -7   3  14  145.91   44.14   0
  -6   4  10  234.52   47.37   0
  -6   4  11   95.80   46.73   0
  -6   4  12  155.69   48.74   0
  -4   4  16  -24.04   54.15   0
  -3   3  18   52.58   60.15   0
  -3   5  11    3.12   44.25   0
  -3   5  12  258.18   44.69   0
  -3   5  13   23.61   50.07   0
  -2   5  11  402.66   38.35   0
  -2   5  13  257.41   44.00   0
  -1   1  19   78.90   56.29   0
  -1   4  16   78.33   58.36   0
   0   4  15  -36.32   53.14   0
   1   4  11  204.38   38.01   0
   1   4  12  183.66   38.41   0
   2  -1  17  124.89   51.87   0
   2   1  16  127.21   47.02   0
   2   3   9   27.54   31.57   0
   2   3  13  124.30   41.20   0
   4   0  10  190.24   36.22   0
  -6   4  13   48.85   47.30   0
  -4   3  18   26.82   52.05   0
  -3   2  19   30.06   53.86   0
  -3   5  10  262.01   38.87   0
  -2   2  19  -46.46   56.12   0
  -2   3  18   93.66   57.65   0
  -2   4   6    3.48   30.51   0
  -2   5  10   -6.41   37.95   0
  -2   5  14  242.79   52.06   0
  -1   5  11  119.27   39.62   0
  -1   5  12  501.86   39.90   0
   0   2  18  195.51   53.69   0
   0   3  17  122.90   52.07   0
   1   0  18  122.63   54.08   0
   1   3   6  222.16   28.00   0
   1   4  10  450.98   35.67   0
   1   4  13  586.97   40.06   0
   3   1  14   29.84   45.62   0
   4   0  11   51.95   39.71   0
  -6   4   9  286.78   45.71   0
  -6   4  14   67.58   47.33   0
  -4   2  19   16.96   48.24   0
  -3   4  17  178.73   60.70   0
  -3   5  14 -101.30   52.20   0
  -2   4  17  106.51   59.58   0
  -1   3   4 9999.99   47.14   0
  -1   3  18   39.15   61.60   0
  -1   5  13   88.55   42.90   0
   1   3  16  129.95   49.24   0
   2   0  17   92.23   50.44   0
  -8   2  15  -31.88   39.64   0
  -7   3   7  200.44   43.44   0
  -7   3  15  -50.78   42.32   0
  -6   2   3    7.05   39.00   0
  -5   4   7   48.79   37.73   0
  -4   4  17  102.43   54.69   0
  -2   5  15  -40.79   58.95   0
  -1   2  19   12.28   52.10   0
  -1   5  10  328.51   35.72   0
  -1   5  14   87.62   43.26   0
   0   4  16   56.59   52.73   0
   1   4   9  314.31   32.16   0
   1   4  14   37.15   42.65   0
   2   3   8  152.99   29.54   0
   3   2  13   -9.24   40.87   0
   4  -1  13  151.22   44.50   0
  -6   3  17   39.91   44.85   0
  -4   4   6   36.69   36.07   0
  -3   5  15  188.49   53.31   0
  -2   5   9  406.44   35.09   0
   0   4   7  694.61   29.37   0
   4   0  12  418.27   41.89   0
  -8   3  11   -9.36   41.97   0
  -8   3  12    1.24   42.26   0
  -6   4  15   28.88   42.78   0
  -4   5  15  -28.52   54.12   0
  -3   3  19   63.87   56.57   0
  -2   3  19 -158.47   57.74   0
  -1   4   6 1544.54   30.36   0
  -1   5  15  226.19   51.70   0
   0   3  18   23.07   56.57   0
   0   5  11  197.53   35.44   0
   0   5  12  -23.91   38.54   0
   0   5  13  406.54   41.69   0
   1   4  15  281.44   47.69   0
   2   1  17   56.11   45.64   0
   3  -1  16  135.71   43.27   0
   3   1  15   40.87   44.95   0
   4  -1   5  315.26   35.79   0
  -8   3  10   94.19   41.21   0
  -8   3  13   55.17   39.18   0
  -7   3  16   37.89   41.61   0
  -6   3   5  301.11   39.93   0
  -6   4   8  -11.69   40.04   0
  -5   5  12  212.16   47.17   0
  -5   5  13   58.38   47.13   0
  -4   3  19   85.14   53.40   0
  -3   4  18  -35.13   58.28   0
  -3   5  16  -74.20   54.90   0
  -2   4  18  118.00   60.48   0
  -2   5  16  159.12   55.40   0
  -1   5   9  163.01   33.00   0
   0   4  17  176.68   53.81   0
   0   5  14  130.08   42.69   0
   1   3  17   51.38   47.74   0
   3   2  14  176.10   43.08   0
  -7   4  12   54.10   46.03   0
  -6   4  16  -15.54   45.86   0
  -5   5  11  -37.78   43.99   0
  -4   4  18    8.95   52.57   0
  -1   3  19  -83.63   53.07   0
  -1   5  16  -59.42   58.26   0
   0   5  10  -10.02   33.72   0
   0   5  15  -27.75   51.70   0
   1   4   8 1581.03   30.18   0
   2   2   5   92.20   26.19   0
   3   0  16  115.64   43.04   0
   4   0  13  113.46   42.13   0
  -8   3  14   69.34   38.85   0
  -7   4  11  156.11   43.68   0
  -7   4  13   94.34   42.59   0
  -6   3  18   -2.44   43.23   0
  -5   3   4  403.33   37.29   0
  -4   5  16   88.12   48.57   0
  -2   5   8  242.96   34.41   0
  -2   5  17  -11.69   61.72   0
   1   0  19   18.94   47.25   0
   1   4  16   -3.20   48.21   0
   2  -1  18   26.14   46.90   0
   2   2  17    3.03   47.32   0
   2   3   7  317.16   27.28   0
   2   4  11  104.33   34.04   0
   2   4  12  400.19   35.54   0
   2   4  13  -53.51   42.16   0
   4  -1  14  -32.54   42.95   0
   4   1  10   30.73   33.32   0
   4   1  11  134.93   37.10   0
  -7   4  10  105.47   43.33   0
  -7   4  14  -41.69   42.54   0
  -5   5  10  361.28   41.65   0
  -3   5  17  -31.09   58.02   0
  -1   2  20    7.48   52.75   0
   1   1  19   53.23   50.57   0
   2   0  18   37.92   50.08   0
   2   4  10   48.12   35.76   0
   2   4  14  160.24   42.71   0
   3   1  16  -34.72   43.61   0
   3   2  15  -18.26   45.43   0
   4   1   9  168.01   32.86   0
   4   1  12  -10.25   40.58   0
  -7   3   6  100.37   40.05   0
  -7   3  17   13.38   38.60   0
  -4   5  17   -7.77   50.40   0
  -3   4  19   97.54   54.12   0
  -2   4  19  223.52   59.24   0
  -1   2   2 1969.82   30.96   0
  -1   5   8  348.54   30.96   0
  -1   5  17  173.32   56.29   0
   0   3  19   48.27   54.14   0
   0   4  18   27.47   57.92   0
   0   5   9 1168.42   34.01   0
   0   5  16  160.05   53.53   0
   1   5  12  379.95   37.13   0
   1   5  13  193.80   39.20   0
   1   5  14  202.68   43.14   0
   2   1  18   -9.46   50.58   0
  -8   3  15   62.35   36.95   0
  -7   4  15   97.30   42.16   0
  -6   4  17   -9.02   44.94   0
  -5   4   6  476.78   37.24   0
  -4   5   8  151.24   37.64   0
  -3   6  13   -1.12   47.65   0
  -3   6  14  228.99   51.97   0
  -2   3  20   89.31   48.35   0
  -2   6  12  176.02   41.26   0
  -2   6  13  133.72   41.79   0
  -2   6  14  107.55   48.18   0
   1   1   2 3993.08   39.81   0
   1   4  17   57.03   48.29   0
   1   5  11  445.61   35.41   0
   2   4  15   -3.83   46.48   0
   4   0  14   74.75   41.51   0
   4   1  13   79.52   40.16   0
  -7   4   9   76.23   42.61   0
  -6   4   7   82.21   38.45   0
  -6   5  12   -7.57   43.10   0
  -6   5  13  108.25   43.35   0
  -5   2   2  943.92   46.12   0
  -5   5   9   94.08   40.28   0
  -4   4  19   73.46   52.13   0
  -3   5  18  -13.68   57.00   0
  -3   6  12  145.66   41.12   0
  -3   6  15   66.00   54.32   0
  -2   4   5  518.36   30.39   0
  -2   5  18  161.52   61.14   0
  -2   6  15  106.64   53.22   0
  -1   3  20  -38.96   54.29   0
  -1   4  19  112.43   53.85   0
  -1   6  12   21.65   36.93   0
  -1   6  13  209.98   40.16   0
  -1   6  14  250.61   41.78   0
   0   4   6  751.21   27.65   0
   0   5  17  -88.43   54.02   0
   1   3   5  395.49   23.37   0
   1   4   7  153.34   27.87   0
   1   5  15   90.69   48.20   0
   2   4   9   40.69   33.62   0
   3   0  17   18.72   45.40   0
   4   0   6  174.67   31.47   0
   4   1   8  124.34   33.16   0
  -6   5  11  193.30   43.80   0
  -6   5  14   81.13   41.30   0
  -2   6  11  -62.27   36.22   0
  -2   6  16   51.21   55.70   0
  -1   5  18  173.93   58.60   0
  -1   6  15  -46.49   52.26   0
   0   3   4    1.18   22.00   0
   1   5  10  580.87   33.64   0
   2   2  18   27.29   46.88   0
   3   2  16  155.51   44.29   0
  -7   4  16   85.52   41.17   0
  -6   5  15  -31.68   41.02   0
  -4   5  18  -15.72   52.72   0
  -3   6  16  126.26   53.61   0
  -2   5   7  191.06   31.19   0
  -1   6  11  193.53   36.54   0
  -1   6  16   97.53   57.96   0
   0   4  19  -82.04   52.72   0
   1   4  18  130.42   50.49   0
   1   5  16  158.99   49.90   0
   3   1  17  130.43   43.58   0
   3   3  15   14.56   40.59   0
   4   1  14   95.55   42.92   0
  -6   4  18   64.03   40.49   0
  -4   4   5 1140.68   37.66   0
  -3   4  20  112.85   46.55   0
  -2   4  20  -57.45   52.86   0
  -2   6  10  554.82   37.56   0
   0   5   8 1104.91   31.52   0
   0   6  12   86.55   36.47   0
   0   6  13  461.86   40.12   0
   0   6  14   69.29   41.59   0
   0   6  15  189.25   48.29   0
   4   0  15   70.41   41.48   0
   4   2  11  275.34   35.53   0
   4   2  12   32.58   40.26   0
  -6   5  10    9.89   41.82   0
  -6   5  16  170.87   43.18   0
  -3   5  19   -6.89   50.65   0
  -3   6  17  -58.72   55.91   0
  -2   3   3 2242.99   32.20   0
  -2   5  19   96.67   54.56   0
  -2   6  17  -40.26   57.22   0
  -1   4   5 1893.87   28.17   0
  -1   4  20    8.84   51.73   0
   0   5  18   87.13   56.12   0
   1   5   9   22.08   33.72   0
   2   1  19  152.84   48.66   0
   2   3   6   67.00   25.22   0
   2   5  13  302.96   40.12   0
   4   2  10  292.76   33.82   0
   4   2  13  295.25   42.61   0
  -7   4   8  158.10   41.62   0
  -7   4  17   20.08   38.86   0
  -5   5   8   58.27   38.20   0
  -4   5  19  -32.38   51.76   0
  -1   5   7 1524.26   31.85   0
  -1   5  19   67.26   55.53   0
  -1   6  17 -119.22   56.19   0
   0   6  11  291.28   35.50   0
   0   6  16  -39.56   54.58   0
   1   2  20  -33.63   46.43   0
   1   5  17  -17.80   48.31   0
   2   4   8    8.32   29.01   0
   2   5  12    6.49   33.72   0
   2   5  14   86.24   40.91   0
   3   2  17   40.75   42.66   0
   3   3  16  106.81   43.91   0
   4   1  15  -71.68   43.53   0
  -5   6  13   82.60   46.49   0
  -5   6  14   98.42   46.78   0
  -5   6  15   16.68   47.65   0
  -4   5   7   18.09   35.47   0
  -2   6  18   92.85   62.45   0
   2   2  19  -67.96   49.39   0
   2   5  11  477.95   36.76   0
   2   5  15  104.14   46.86   0
   4   2  14   21.66   41.61   0
  -6   5  17   61.32   41.38   0
  -5   6  12   85.41   47.36   0
  -4   3   3  949.63   35.46   0
  -4   6  10  171.90   41.09   0
  -3   6  18  -74.43   53.17   0
  -2   6   9   21.93   34.41   0
  -1   6  18  178.92   57.27   0
   0   4  20   -0.23   49.18   0
   0   6  17   36.99   53.21   0
   1   6  13   56.24   38.50   0
   1   6  14  406.54   40.20   0
   4   2   9   98.44   32.92   0
  -7   5  12   58.64   42.52   0
  -7   5  13   19.98   40.92   0
  -7   5  14   43.96   40.53   0
  -6   5   9  227.79   43.36   0
  -5   6  16   31.07   45.28   0
  -3   5  20  110.06   49.62   0
  -2   5  20   86.17   53.62   0
   0   6  10   84.26   33.34   0
   1   5  18   -6.01   50.11   0
   1   6  12  258.14   36.74   0
   1   6  15  -32.35   46.81   0
   2   5  16  126.43   46.49   0
   3   1  18    2.98   44.89   0
   3   3  17  -43.81   43.51   0
  -5   6  11  138.31   45.94   0
  -2   6  19  113.23   58.46   0
  -2   7  14  237.42   46.71   0
  -2   7  15  173.44   53.22   0
  -1   5  20   52.37   52.35   0
  -1   6   9  566.88   33.11   0
   1   2   3  679.98   23.70   0
   1   4   6 1253.62   28.03   0
   1   6  16  154.37   50.99   0
   2   3  19   55.69   48.41   0
   2   5  10  153.37   32.62   0
   3   4  10  125.90   33.23   0
   4   2  15   18.75   42.85   0
  -7   5  11   -4.81   42.15   0
  -6   3   4   13.56   36.57   0
  -6   4   6  150.59   39.00   0
  -6   5  18  -88.91   40.14   0
  -5   6  17    9.81   44.21   0
  -3   6  19   -6.27   51.53   0
  -3   7  14  -22.65   51.18   0
  -3   7  15  197.52   51.43   0
  -2   7  13   40.74   42.57   0
  -2   7  16   90.29   49.81   0
  -1   6  19   51.10   59.21   0
  -1   7  13  401.45   41.47   0
  -1   7  14  -43.38   41.42   0
  -1   7  15   73.32   51.13   0
   0   5   7   14.34   27.38   0
   0   6  18  171.34   56.12   0
   1   5   8  488.89   29.60   0
   1   6  11  195.20   33.77   0
   3   2  18  -31.17   45.65   0
   4   1  16  108.93   41.16   0
   4   3  12  400.21   35.94   0
   4   3  13  111.41   40.55   0
   5  -1   8   32.27   36.69   0
  -7   5  16  -67.04   38.93   0
  -5   4   5  488.80   36.36   0
  -3   7  16  152.43   52.25   0
  -2   7  12  182.86   45.20   0
  -2   7  17  -46.47   56.68   0
  -1   3   3 2628.42   31.81   0
  -1   7  16   23.97   52.24   0
   0   4   5 1899.02   28.31   0
   1   5  19   50.31   49.71   0
   1   6  17  -13.94   49.04   0
   4   2   8  924.74   35.01   0
   4   3  11  115.69   34.48   0
   4   3  14    9.52   43.78   0
  -6   6  13   95.06   43.58   0
  -6   6  14  -58.73   43.17   0
  -6   6  15   35.63   42.93   0
  -5   6  10   64.54   45.03   0
  -5   6  18  123.52   45.46   0
  -3   7  17  -59.63   51.03   0
  -2   5   6  387.55   28.43   0
  -1   7  12   28.00   36.86   0
  -1   7  17  -42.82   53.87   0
   0   7  14   89.18   39.96   0
   0   7  15   75.55   44.90   0
   2   4   7  708.72   28.22   0
   3   3   7  493.17   30.63   0
   4   2  16   95.88   43.62   0
  -7   5  10  198.25   41.69   0
  -7   5  17   13.08   36.39   0
  -6   6  12  -26.86   44.48   0
  -6   6  16    9.06   43.17   0
  -5   5   7  116.38   35.91   0
  -2   6   8 1777.75   38.18   0
  -2   6  20   -4.87   56.58   0
  -2   7  18   -9.46   59.72   0
  -1   5  21  -10.47   48.87   0
   0   6   9   93.28   32.07   0
   0   6  19  -43.94   55.02   0
   0   7  13   79.50   38.10   0
   0   7  16  191.21   53.37   0
   1   6  10  284.84   32.40   0
   1   6  18   35.31   54.57   0
   2   5   9  440.02   33.20   0
   2   6  13  135.97   39.40   0
   2   6  14  -91.75   40.00   0
   2   6  15  282.69   47.33   0
   3   4   9   38.47   32.35   0
   3   4  17  -36.21   43.71   0
   4   0   5  770.85   34.32   0
   4   3  10  460.05   33.23   0
   4   3  15   79.88   41.71   0
   5   0   9  225.94   38.03   0
  -6   5   8   79.06   41.63   0
  -3   6  20  123.95   52.47   0
  -3   7  18  132.91   50.94   0
  -2   7  11   73.63   41.45   0
  -1   5   6 1296.00   30.86   0
  -1   7  18  120.85   57.47   0
   0   7  12  378.66   38.71   0
   0   7  17  121.29   52.39   0
   2   3  20  -22.12   46.45   0
   2   6  16   39.88   48.95   0
   3   1  19   28.79   43.36   0
   3   5  12  269.79   38.77   0
   4   1  17    1.07   41.45   0
  -6   6  17   53.93   41.99   0
  -5   6  19   90.58   42.95   0
  -4   7  12  300.87   44.95   0
  -1   7  11  367.58   35.04   0
   2   6  12  470.85   35.72   0
   3   2  19   45.89   45.34   0
  -4   5   6  851.90   36.53   0
  -2   4   4  279.86   28.38   0
  -2   7  19   36.73   53.52   0
   0   5  21  145.31   47.91   0
   0   6  20   44.06   50.60   0
   0   7  18   84.91   54.56   0
   1   3   4 1615.57   26.19   0
   1   6  19   35.25   52.63   0
   1   7  14    9.52   38.54   0
   1   7  15   35.57   44.74   0
   2   3   5 1853.66   28.89   0
   3   4  18  105.91   42.76   0
   3   5  11   -6.71   33.73   0
   4   2  17  -30.90   40.56   0
   4   3  16  -10.85   40.22   0
  -5   6   9  300.77   39.64   0
  -5   7  14  136.88   44.37   0
  -5   7  15   -8.57   41.81   0
  -5   7  16   98.23   43.39   0
  -3   7  19  -49.66   49.70   0
  -1   7  19  -20.81   56.51   0
   0   7  11   -3.18   33.99   0
   1   7  13  348.92   37.68   0
   2   4  20   27.10   47.12   0
   3   3  19   77.42   45.82   0
   4   3   9   97.41   30.63   0
   4   4  13   48.04   37.99   0
   4   4  14   57.17   40.17   0
   5   1  13   38.21   39.24   0
  -6   6  18   18.72   38.17   0
  -5   7  13  188.72   44.25   0
  -4   7  11   28.48   41.64   0
  -1   6  21   31.46   46.86   0
   0   2   2 1787.31   27.51   0
   1   5   7  277.92   27.57   0
   1   6   9  782.98   32.17   0
   4   4  12  181.99   35.87   0
   4   4  15   40.09   42.49   0
  -5   7  17  -85.11   43.50   0
  -2   7  20   87.20   50.32   0
  -2   8  15   31.89   48.49   0
  -2   8  16  109.93   48.94   0
  -1   7  10  447.19   34.02   0
  -1   8  15  117.99   48.17   0
  -1   8  16   -0.21   51.47   0
   0   6   8  481.76   30.31   0
   0   7  19  120.48   54.92   0
   1   7  12  -21.05   34.98   0
   4   2   7   -1.66   30.34   0
   4   3  17   63.99   40.50   0
   5   1  14  -19.21   38.38   0
  -7   6  14  154.05   36.75   0
  -7   6  15   47.69   35.47   0
  -6   6  10  246.69   42.07   0
  -5   7  12   52.59   42.62   0
  -3   7  20   62.79   50.31   0
  -2   8  14   61.07   46.18   0
  -2   8  17   25.56   50.66   0
  -1   4   4   48.69   24.36   0
  -1   7  20   75.53   54.45   0
  -1   8  14  111.79   44.69   0
  -1   8  17  153.60   50.07   0
   0   5   6 1214.05   28.70   0
   1   7  18   58.48   52.65   0
   3   4  19   81.00   45.44   0
   4   4  16  159.65   41.66   0
  -7   6  13   22.13   38.11   0
  -7   6  16   85.93   35.93   0
  -5   7  18  -10.75   40.49   0
  -2   8  13  -63.94   44.73   0
  -2   8  18  -43.51   55.14   0
  -1   8  13  147.76   41.54   0
   0   7  10  694.11   36.60   0
   0   8  15   71.03   45.72   0
   0   8  16   29.19   49.91   0
   2   6  10 1123.44   34.09   0
   2   7  15   28.00   44.86   0
   3   5  18   15.95   42.18   0
   3   6  14   61.52   38.90   0
   4   2  18   31.07   41.16   0
   5   2  12  119.97   37.59   0
   5   2  13   18.46   38.49   0
  -2   6   7  214.48   30.24   0
  -1   8  18  105.62   55.58   0
   0   7  20   17.09   50.50   0
   0   8  14  221.51   37.58   0
   0   8  17  -10.98   50.16   0
   1   4   5 1099.89   25.65   0
   1   7  11   80.39   32.52   0
   1   7  19   42.84   52.94   0
   2   4   6 1052.75   28.53   0
   2   7  14    5.23   38.06   0
   3   3   6 1519.71   30.83   0
   3   3  20   21.04   42.40   0
   3   6  13   18.21   37.89   0
   5   2  11   75.83   33.58   0
   5   2  14    0.91   37.58   0
  -6   7  14  122.40   40.52   0
  -6   7  16  -19.58   39.45   0
  -5   7  19  -49.61   39.43   0
  -4   7  10  298.47   35.50   0
  -4   8  15    4.77   43.87   0
  -4   8  16   22.26   43.82   0
  -2   8  19   11.86   48.62   0
  -1   6   7  821.68   31.56   0
  -1   7  21   40.94   49.70   0
  -1   8  19  -94.22   58.14   0
   0   3   3  652.90   23.10   0
   0   8  13  224.04   39.06   0
   2   7  17   69.91   45.34   0
   3   6  12   90.58   37.62   0
   4   3  18   16.34   39.90   0
   4   4  17   37.57   37.52   0
  -6   7  17   14.07   39.43   0
  -5   7  11  125.35   40.04   0
  -4   8  14   80.58   44.77   0
  -3   8  19   -4.88   50.73   0
  -2   8  12  158.32   38.57   0
  -1   7   9  322.51   34.36   0
  -1   8  12  220.88   35.60   0
   1   6  21  109.41   44.81   0
   1   8  15   92.49   45.09   0
   1   8  16   12.25   50.24   0
   2   7  18  -35.42   47.60   0
   3   5  19   21.92   43.04   0
   4   5  15    9.92   38.54   0
   0   7  21    5.73   43.96   0
   0   8  19  -37.53   54.17   0
   1   6   8  311.88   29.52   0
   1   7  20   27.80   44.72   0
   1   8  14   49.76   36.63   0
   2   5  21    0.21   42.42   0
   2   7  12  211.23   33.81   0
   3   4  20   39.33   42.19   0
   3   5   9  627.53   30.78   0
   4   5  16   52.56   40.35   0
  -2   8  20  153.55   46.65   0
  -1   8  20  -74.77   52.68   0
   0   8  12   -5.96   34.45   0
   1   7  10  165.71   30.18   0
   1   8  18   30.52   50.72   0
   2   6   9  454.45   30.52   0
  -1   6   4  472.18   22.23   0
  -1  10  21  -16.83   41.98   0
  -1  11  18   36.82   45.29   0
   0   9  21   63.75   41.27   0
  -6  11  15  -12.35   34.49   0
  -5  11  13  -31.06   35.06   0
  -3   6   3   53.45   26.01   0
  -2  11  20  -34.61   44.86   0
   0   7   6   21.84   24.99   0
   1   3   3   17.70   19.94   0
   1   6   6  382.88   23.49   0
   1   8   9  209.76   27.93   0
   2   6  20  -68.06   38.03   0
   3   3  18   -5.24   32.15   0
   3   5   9  609.89   27.13   0
   3   6  17  -36.70   35.78   0
  -6  11  14  -45.53   36.41   0
  -3  11  12  -65.93   39.55   0
   1   9  20   53.52   41.80   0
   1  10  15  -28.01   40.36   0
   2   7   9   83.91   29.14   0
   3   5  18  -17.91   34.98   0
   3   7  14  -22.35   31.74   0
  -4  10   9   22.57   37.57   0
  -3  10   9  -49.70   39.52   0
  -1   3   1 2691.63   31.86   0
   0   9   9  228.51   27.55   0
   0  11  17  -48.99   43.62   0
   1  10  18   36.57   44.50   0
   2   7  20  -70.55   40.40   0
   2   9  16   24.44   38.47   0
   2   9  17  -68.26   40.02   0
  -4   9   7    1.30   34.32   0
   0  11  18  -46.65   46.46   0
   1   7   7   67.20   25.68   0
   2   5  21  -22.39   37.88   0
   3   6  10   24.48   28.35   0
   3   6  18   40.49   34.18   0
   3   7  12   24.23   31.27   0
   4   0  10  145.66   39.90   0
   4   2  10  200.38   31.25   0
   4   3  14   45.05   36.72   0
  -4  12  16   27.70   39.59   0
  -4  12  17  -90.54   39.17   0
  -4  12  18   49.00   38.02   0
  -3  12  15  -57.44   40.97   0
  -2  12  17  -26.08   43.20   0
  -2  12  18   52.46   46.71   0
   0   8   7  120.66   28.51   0
   1  10  19   73.70   43.08   0
   2   6  21  -48.78   40.89   0
   2   9  18   12.08   39.86   0
   4   4  13   28.89   35.91   0
  -5   9   7   -3.36   37.21   0
  -5  10   9  -60.39   38.98   0
  -4  11  11   10.10   38.60   0
  -4  12  15    8.28   38.91   0
  -3  11  11   60.45   39.92   0
  -2  12  19    4.19   47.46   0
  -1  11  12    2.44   38.75   0
   2   5   6  487.29   25.01   0
   2   8  10  109.31   32.17   0
   3   7  18  -57.01   39.64   0
   4   4  12  163.81   31.64   0
  -5  12  16  -68.52   37.97   0
  -3  12  14  -11.56   40.25   0
  -2   9   7   12.54   29.86   0
  -1  12  17  -31.32   44.77   0
  -1  12  18 -117.94   46.76   0
   0  11  20  176.76   45.62   0
   1   8   8  335.72   29.03   0
   1  10  20   -4.98   38.64   0
   2   7  21   17.57   37.97   0
   2   9  12  165.83   35.19   0
   3   4   7  421.73   26.20   0
   3   5   8  221.27   29.22   0
   3   6  19  -13.62   39.77   0
   3   7  11  804.98   31.05   0
   4   0   9   75.11   37.81   0
   4   3  10  424.55   31.97   0
   4   4  15    1.22   38.40   0
  -2   5   2  250.99   24.81   0
  -2  12  20   -0.07   45.42   0
  -1  12  15   78.01   43.82   0
  -1  12  19   -6.81   45.67   0
   2   1   3    6.89   22.57   0
   4   2   9  117.16   33.51   0
   4   4  11  469.11   31.74   0
   4   5  14   69.14   39.08   0
  -5  11  11   32.27   38.12   0
  -5  12  15  -11.80   36.85   0
  -4   8   5   -3.41   33.03   0
   0  10  10  136.91   31.78   0
   1  11  16    2.83   43.38   0
   2   7   8   22.79   28.68   0
   2   8  21   11.50   42.08   0
   2  10  16  -19.17   41.13   0
   2  10  17 -102.96   43.29   0
   3   7  19   47.46   42.85   0
   3   8  13  127.23   35.14   0
   4   3  16  -17.93   44.53   0
  -3   8   5  308.95   31.07   0
  -2   7   4  386.34   27.94   0
  -1  12  20   21.21   43.27   0
   0   9   8  318.04   28.44   0
   1  11  19   90.94   47.30   0
   2  10  14  163.38   39.44   0
   2  10  18   29.33   46.17   0
   4   5  16   85.47   41.94   0
  -5  12  14   -5.22   35.64   0
  -4  10   8  -16.87   40.14   0
  -4  11  10  -33.91   43.32   0
  -3  10   8  378.35   39.34   0
   0  12  17  -13.45   48.99   0
   0  12  18  -34.58   48.45   0
   2  10  19   37.48   46.14   0
   3   6  20   26.20   47.49   0
   3   7  10  182.42   32.27   0
   3   8  12  304.68   33.63   0
   4   6  14   23.94   38.80   0
   4   6  15  123.62   42.40   0
  -5   8   5  273.80   35.58   0
  -2   4   1   15.76   24.90   0
  -2  10   8  108.86   35.61   0
  -2  11  10  -16.74   38.52   0
   0  12  19   37.56   46.46   0
   1  11  20   25.29   42.95   0
   2   8   9  819.02   30.56   0
   3   8  19   -1.24   45.25   0
   3   9  15   55.26   43.64   0
   3   9  16  176.24   44.09   0
   4   3   9  127.83   30.95   0
   4   4  17   61.43   44.27   0
   4   5  17  -33.17   44.95   0
  -3  13  17  -11.63   44.28   0
  -3  13  18   29.16   42.82   0
   0   6   4  135.92   21.44   0
   0   7   5 1027.97   27.75   0
   0  12  20  -46.65   49.01   0
   1   6   5  608.86   25.82   0
   2  10  13   47.87   35.50   0
   3   7  20    1.57   46.88   0
   3   9  14  131.46   40.46   0
   4   0   8   65.02   37.64   0
  -5  10   8   29.38   37.64   0
  -5  11  10   37.00   39.95   0
  -5  12  13  -12.03   35.45   0
  -3  13  16   19.44   42.74   0
   0   5   3  126.00   22.06   0
   0  10   9  167.25   34.19   0
   0  11  11  156.76   38.95   0
   1   5   4   24.10   22.41   0
   1  11  21  -66.06   49.15   0
   3   8  11  -22.38   33.69   0
   4   6  17   59.10   43.65   0
  -4   9   6  354.05   35.80   0
  -4  12  12   -6.64   39.99   0
  -4  13  17  -34.87   36.66   0
  -1  13  17  -14.31   44.54   0
  -1  13  18   33.27   46.29   0
   0   8   6 1404.26   30.93   0
   2   9  10  156.50   33.97   0
   2  11  17  111.21   47.62   0
   3   8  20   13.81   49.40   0
   3   9  13   25.45   35.35   0
  -4  13  16  -10.89   37.91   0
  -3  13  15  -78.24   41.25   0
  -1  13  16   30.46   43.55   0
  -1  13  19   39.53   46.93   0
   1  10  10   69.97   32.44   0
   2  10  12  291.84   36.26   0
   3   5   7 2519.36   31.99   0
   3   6   8   21.08   27.41   0
   4   5  18   27.55   42.16   0
   4   7  16  126.41   43.34   0
  -4  13  15   21.71   39.18   0
  -3  11   9  129.35   40.84   0
   1  12  19   13.12   45.94   0
   2  11  19   -2.79   46.13   0
   3   7   9  113.09   30.24   0
   4   7  17   84.75   42.22   0
  -5  12  12   -8.60   37.62   0
  -4  11   9  160.47   41.66   0
  -3  12  11  -19.60   41.94   0
  -3  13  14  150.71   40.12   0
  -2  13  14  -24.08   43.46   0
   0   9   7  209.43   30.44   0
   1   4   3 4280.35   31.35   0
   1   9   8   16.62   32.63   0
   1  12  20   58.74   46.91   0
   2   5   5  141.46   24.69   0
   2  11  14   84.78   44.36   0
   3   4   6  199.73   25.02   0
   3   7  21  -50.90   44.18   0
   3  10  16  194.20   42.73   0
   4   6  18   52.02   41.09   0
  -4  12  11   95.72   42.96   0
  -2  12  11  117.44   41.36   0
   0  13  17  -42.68   49.18   0
   0  13  19  -37.78   49.53   0
   2   8   8  256.97   30.72   0
   2  11  20   66.32   44.62   0
   3   8  10  148.34   32.03   0
   3   9  20   20.49   44.59   0
   3  10  15  190.32   42.51   0
   4   3   8  675.48   29.87   0
  -5  13  15  -51.03   38.89   0
   0   4   2   45.18   21.57   0
   0  11  10   38.96   35.69   0
   0  12  12    4.89   43.71   0
   0  13  16   46.28   46.23   0
   0  13  20   40.06   49.52   0
   2  10  11  -14.80   35.55   0
   3   8  21    5.03   44.31   0
   3  10  14  107.42   43.74   0
   4   7  18  -52.50   41.29   0
  -4  10   7  148.43   41.13   0
  -3  13  13  109.78   41.57   0
  -2  13  13  105.18   45.87   0
   1  11  11   10.23   34.60   0
   2   9   9  150.63   31.72   0
   2  11  13  -23.78   37.72   0
   4   8  17   49.72   41.56   0
  -4  13  13  137.55   41.42   0
   0  10   8  475.88   34.00   0
   1  10   9  211.78   32.29   0
   2   2   3 4542.32   34.79   0
   2  12  17  -50.07   49.44   0
   3   9  11  222.73   34.09   0
   4   8  13   59.21   36.20   0
  -4   6   2  187.66   40.66   0
  -4   7   3   85.74   38.39   0
  -3  14  17   57.26   40.69   0
   1  13  18   63.06   48.07   0
   2   4   4 2464.24   27.56   0
   2  12  16   59.38   45.34   0
   2  12  19  -30.15   46.43   0
   3   9  21  -40.74   42.01   0
   4   6  19   29.38   38.64   0
   4   7  11    4.19   32.07   0
   4   8  18   32.48   37.70   0
  -3   7   3  686.68   35.27   0
  -3  14  16   37.42   43.67   0
  -2  12  10  -13.81   45.23   0
  -2  14  16   73.88   43.40   0
  -1  14  18   35.60   45.35   0
  -1  14  19   24.01   48.43   0
   2  11  12  107.16   36.33   0
   2  12  15   38.82   46.86   0
   3   3   5   69.70   22.90   0
   3   6   7 1084.92   29.50   0
   3   7   8  222.22   30.36   0
   3  11  16   -2.19   41.43   0
   3  11  18  -30.59   45.46   0
   4   7  19  -12.83   40.42   0
  -4  12  10   99.71   44.19   0
  -3   8   4  232.21   34.82   0
  -3  11   8  190.83   43.32   0
  -3  13  12   64.07   45.65   0
   1   7   5  209.80   28.65   0
   1   8   6  167.32   30.37   0
   1  13  20   16.12   45.78   0
   2  10  10  208.61   34.50   0
   2  12  20   19.50   40.06   0
   3   8   9   27.32   32.04   0
   3  10  12   49.96   37.95   0
   3  11  15  105.51   44.04   0
   3  11  19   -2.87   45.62   0
   4   8  12    4.25   34.96   0
   4   8  19   31.12   42.80   0
  -4  14  16  -85.02   41.09   0
  -3  14  15   28.60   43.47   0
  -2  11   8   56.74   43.44   0
  -2  13  12  202.49   45.08   0
   0  11   9  419.66   38.32   0
   0  14  19  118.42   47.39   0
   2  12  14  -45.04   47.02   0
   3   5   6   23.93   25.89   0
   3  10  21    6.39   41.08   0
   4   9  18  -26.15   41.25   0
  -4  11   8   51.76   42.59   0
  -4  13  12   52.46   42.41   0
   0   8   5  114.25   28.67   0
   0  13  13  -15.88   43.94   0
   1   6   4 1414.83   27.17   0
   2   7   6   19.79   28.04   0
   4   6   9  225.88   27.76   0
   4   9  13  139.44   39.26   0
  -4  14  15    0.23   41.73   0
  -3   9   5  484.56   36.85   0
  -2   8   4  265.41   33.98   0
   0   7   4 1569.92   28.40   0
   0  14  16   31.19   44.68   0
   1  13  14  283.72   44.66   0
   2   9   8 1160.80   33.00   0
   2  11  11  303.15   36.99   0
   4   5   8 1224.45   30.40   0
   4   8  11  331.65   32.32   0
   4   9  19   11.52   40.50   0
   5   4  13  315.63   38.11   0
   5   4  14   53.08   38.43   0
  -4   9   5  188.59   39.97   0
  -3  14  14   43.39   44.67   0
  -2   7   3  552.13   33.18   0
  -2  14  14  108.17   43.32   0
   1   3   2 1472.25   25.39   0
   1  10   8  195.57   33.75   0
   2  12  13  150.76   45.96   0
   2  13  17  187.67   48.79   0
   2  13  19   55.95   45.15   0
   3  10  11  175.05   36.50   0
   3  11  13   97.00   38.94   0
   4   8  20   14.76   43.88   0
   4  10  15   19.52   43.38   0
   4  10  16  -13.39   41.22   0
   5   4  15  163.18   39.43   0
   5   5  15   -2.37   39.88   0
   5   6  14   98.22   39.57   0
   5   6  15    1.35   38.92   0
  -2   9   5   30.98   35.27   0
   1  14  19    1.26   49.09   0
   2  10   9  102.58   36.47   0
   2  13  16   28.74   48.22   0
   2  13  20   42.21   41.44   0
   3   0   4   82.00   26.42   0
   3  12  16   67.31   44.35   0
   3  12  19  -45.68   43.96   0
   5   5  12  250.38   35.44   0
   5   5  16   37.34   38.99   0
   5   6  13   51.87   38.07   0
  -3  13  11   65.26   46.47   0
  -2  13  11   29.71   45.05   0
   0   6   3  213.81   24.70   0
   1  13  13   45.89   46.13   0
   1  14  17   71.09   49.18   0
   2  13  15   81.70   48.57   0
   3   4   5   70.66   23.11   0
   3   8   8  495.28   31.99   0
   3  12  15   71.52   46.79   0
   4  10  14   53.40   41.50   0
   4  10  19   85.60   42.10   0
   5   4  11  113.54   32.91   0
   5   7  14   49.09   39.40   0
   5   7  15   27.48   40.58   0
   5   7  16   32.08   38.35   0
  -4  14  14   70.27   39.11   0
  -3  12   9   15.13   44.62   0
  -2   6   2   -4.34   30.92   0
  -2  12   9  -12.01   44.87   0
   1   5   3 2659.67   27.93   0
   1  11   9   -3.97   38.61   0
   2   3   3  137.59   21.23   0
   2  12  12   32.11   42.83   0
   3   7   7    4.69   30.41   0
   3   9   9  131.86   32.30   0
   4   7   9  475.28   30.70   0
   4   8  10   21.95   33.08   0
   5   6  12  136.97   34.68   0
   5   6  17    9.23   38.29   0
  -4  10   6  -33.86   44.34   0
  -4  13  11  -22.69   43.71   0
  -3   5   1  741.70   41.95   0
  -2  10   6  -25.74   36.97   0
  -2  14  13   -6.79   42.84   0
  -1  13  11  256.60   42.09   0
   2   5   4 1403.37   26.87   0
   2  11  10   25.14   37.63   0
   4   6   8  360.60   31.18   0
   4  10  13   44.65   39.69   0
   4  10  20  161.52   42.70   0
   4  11  16   86.74   44.38   0
   4  11  17   -0.77   43.39   0
   5   5  11   18.06   31.85   0
   5   7  13  379.90   37.46   0
   5   7  17   -1.79   39.73   0
  -4  12   9   13.55   43.60   0
  -1  14  13   90.85   44.62   0
   0  15  19   13.04   48.49   0
   1  14  15  127.01   48.70   0
   2  13  14  -11.79   45.80   0
   3   6   6  298.23   28.01   0
   3  10  10   45.34   34.97   0
   4   9  11  213.50   33.74   0
   4   9  21  -23.30   41.47   0
   4  11  15  -18.71   44.19   0
   5   8  15   52.59   39.00   0
   5   8  16   27.59   40.28   0
   5   8  17  162.36   38.11   0
  -3  15  16   66.83   41.21   0
  -2  15  16  -61.69   42.40   0
   0  15  18  -61.42   45.63   0
   1  13  12   54.80   45.74   0
   2  14  18  -16.77   49.26   0
   2  14  19   69.76   49.59   0
   4  -1   7  171.88   38.64   0
   5   3  10   32.64   30.40   0
   5   4  10  255.80   30.52   0
   5   7  18  -48.81   38.41   0
  -3  11   7   20.17   45.30   0
  -1  10   6  161.03   34.70   0
   1  12  10   86.62   37.96   0
   2  14  20  -72.89   44.47   0
   3  12  13   -0.68   43.29   0
   3  13  17  -64.02   49.56   0
   3  13  19    7.81   41.23   0
   4   5   7   12.61   28.29   0
   4  10  21   42.58   40.13   0
   4  11  14   27.39   43.95   0
   4  11  20  -40.12   42.92   0
   5   5  10   67.60   32.12   0
   5   8  18  -14.68   40.38   0
   5   9  16   46.13   40.24   0
  -2  11   7   95.61   40.63   0
  -2  15  15   50.42   44.66   0
   1   8   5  326.77   30.93   0
   2   8   6  457.09   30.77   0
   2   9   7   13.23   31.79   0
   2  12  11   96.03   36.97   0
   2  13  13  174.10   46.88   0
   2  14  16   40.28   50.70   0
   3  13  20   60.96   44.41   0
   4   2   6  620.72   26.71   0
   5   9  17   16.07   39.54   0
  -3  13  10   31.08   45.74   0
  -3  15  15    7.15   42.15   0
  -1  15  15   52.44   42.88   0
   0   5   2   75.40   24.33   0
   1  10   7    0.09   31.59   0
   1  15  18    2.93   42.77   0
   1  15  19  129.73   44.43   0
   2  10   8  -15.18   33.44   0
   3   5   5  325.47   26.42   0
   3  13  15   65.47   46.00   0
   4   8   9   18.87   32.11   0
   4   9  10  315.82   34.44   0
   4  12  17   47.85   45.67   0
   4  12  18   29.06   41.51   0
   5   8  19   25.03   41.26   0
   5   9  18   24.28   38.93   0
  -4  11   7   86.84   44.12   0
  -3  14  12  -33.21   42.31   0
  -1  11   7  107.18   37.61   0
  -1  13  10   -1.26   44.89   0
  -1  14  12   27.81   45.21   0
   1   7   4  730.17   29.18   0
   1  15  17   86.37   43.37   0
   2   7   5  605.48   26.62   0
   3   8   7 1996.34   34.16   0
   4   7   8   49.54   30.33   0
   4  11  13    8.28   43.49   0
   4  11  21  -77.97   40.51   0
   4  12  16   60.62   44.79   0
   5   3   9  136.28   31.64   0
   1  13  11   86.48   44.67   0
   2  11   9  170.63   34.95   0
   3   3   4  861.73   25.68   0
   3  10   9  314.74   35.06   0
   4  10  11   74.99   35.70   0
   4  12  15   82.87   43.32   0
   5   4   9  190.66   29.73   0
   5   9  19   12.25   40.74   0
   5  10  18   86.42   41.39   0
  -3  12   8  -69.50   45.91   0
  -2  12   8  104.07   43.58   0
  -2  15  14   26.86   43.50   0
  -1  15  14    2.04   41.66   0
   1  15  16   57.02   43.39   0
   2  13  12  248.59   45.45   0
   3   7   6  997.70   31.43   0
   3  13  14   12.35   46.62   0
   3  14  18   69.97   48.53   0
   4   0   6  104.70   31.26   0
   4   6   7  235.34   29.48   0
   2   4   3 1001.79   23.03   0
   2  12  10   59.78   39.10   0
   2  14  14  137.95   45.76   0
   2  15  18  -33.47   48.64   0
   2  15  19  -42.59   46.74   0
   3  11  10  148.95   36.80   0
   3  14  20  -39.27   43.39   0
   4   4   6   53.79   25.11   0
   5   8  11    7.97   36.66   0
   5  10  14  -48.98   42.02   0
   5  10  19   30.44   42.25   0
  -1  16  17   -3.16   41.59   0
   1   4   2  283.54   22.10   0
   1  15  15   41.26   44.43   0
   2   6   4  739.75   27.88   0
   2  15  17   13.47   49.52   0
   3  14  16   30.53   52.07   0
   4  13  17   40.96   50.97   0
   4  13  18    8.04   43.10   0
   4  13  19   22.94   45.74   0
   5   9  20   39.95   39.66   0
  -2  14  11   -6.67   47.72   0
   3  12  11  131.65   39.73   0
   4   9   9  101.68   35.08   0
   5  10  13  169.43   43.15   0
   5  10  20   83.81   43.31   0
  -2  15  13    7.82   42.69   0
  -1  15  13   -9.82   43.40   0
  -1  16  16    7.21   45.37   0
   1   6   3  402.44   24.74   0
   1  14  12  -24.90   47.64   0
   2  14  13  -55.79   46.96   0
   3  14  15   87.71   51.03   0
   5  11  19  108.30   43.51   0
  -3   9   4  272.18   43.47   0
  -2  13   9  -54.43   44.61   0
  -2  16  16   39.06   41.47   0
   1  13  10 -103.64   45.45   0
   2  10   7  190.29   32.89   0
   2  13  11   15.42   43.85   0
   3   4   4    1.93   23.22   0
   4   5   6  744.80   28.76   0
   4  11  11  321.74   38.00   0
   4  13  15   37.84   47.47   0
   5   3   8  181.35   31.88   0
   5  11  20   50.33   43.01   0
  -3  10   5   45.61   42.29   0
  -3  13   9  136.63   46.98   0
  -3  15  13    2.64   41.95   0
  -1  13   9  149.45   45.87   0
   1  16  17   31.79   46.60   0
   2  11   8  301.15   33.26   0
   2  15  15  153.19   50.47   0
   3   9   7  642.52   33.29   0
   3  10   8  406.49   35.21   0
   4   7   7  363.82   31.02   0
   5  10  12   46.63   41.55   0
   5  11  14   -6.39   42.57   0
   6   6  15   30.25   39.99   0
   6   7  15   21.92   40.44   0
   6   7  16   52.41   40.43   0
  -3   8   3   40.43   40.61   0
   1  10   6  546.22   33.01   0
   2   8   5   63.07   29.36   0
   3  15  18  -58.04   49.22   0
   4  14  19  193.84   44.46   0
   5   7   9   83.29   30.11   0
   5  12  16  -83.00   45.76   0
   6   5  13   73.17   40.67   0
   6   5  14   -9.70   38.47   0
   6   6  13   28.47   37.27   0
   6   6  16   17.19   38.81   0
   6   8  15  104.60   40.34   0
   6   8  16   48.89   40.53   0
  -2  11   6   83.08   41.20   0
  -2  16  15    8.50   42.06   0
  -1  10   5    0.56   35.54   0
   1  11   7  105.64   35.48   0
   2  12   9   27.29   37.99   0
   3   8   6   31.78   31.88   0
   3  15  17   42.77   47.31   0
   4  12  12   24.93   43.13   0
   4  14  17  107.52   48.38   0
   4  14  20   70.93   44.05   0
   5  11  13  137.75   43.22   0
   5  12  20   58.46   42.33   0
   6   7  13  -41.74   41.01   0
   6   7  17   45.79   38.57   0
   6   8  14  116.25   40.71   0
   6   8  17   -0.99   38.32   0
  -3  11   6   97.08   45.35   0
  -1   9   4  538.81   35.14   0
   0  16  15  -38.14   44.05   0
   2   5   3 1210.94   26.93   0
   2  15  14   20.93   49.00   0
   2  16  18   80.82   46.72   0
   3  12  10   74.10   36.87   0
   3  15  16   -8.31   52.47   0
   4   6   6  181.97   31.69   0
   4  10   9  214.90   38.89   0
   4  14  16  154.78   53.50   0
   5  12  15   -1.20   43.41   0
   6   5  12    3.97   37.70   0
   6   6  12  239.68   40.01   0
   6   8  18   14.44   40.15   0
   6   9  15   56.89   41.22   0
   6   9  17  -32.08   41.12   0
  -2  14  10  112.97   48.30   0
  -2  15  12  -59.51   43.16   0
  -1  14  10   39.14   46.73   0
  -1  15  12  176.72   43.74   0
   1   8   4  101.09   29.64   0
   2  13  10  133.87   45.23   0
   2  16  17   36.19   45.36   0
   3  14  13   71.49   48.10   0
   4   9   8  375.08   34.38   0
   4  11  10   37.07   38.24   0
   4  13  13    6.19   50.58   0
   5   9  10   98.87   34.11   0
   5  10  11  313.97   40.85   0
   6   7  12  266.86   38.76   0
   6   8  13  137.19   38.87   0
   6   9  18   45.70   41.16   0
  -2  12   7   47.04   45.29   0
  -1  16  14   -1.37   44.99   0
   0   4   1   15.05   22.95   0
   0  15  12   43.65   44.25   0
   2   7   4  219.95   28.22   0
   3   5   4    9.41   26.00   0
   3   7   5   87.76   30.21   0
   4  14  15  -28.90   51.42   0
   5   8   9    2.59   32.51   0
   5  11  12  198.43   45.98   0
   5  12  14  104.81   43.52   0
   5  13  17   15.21   43.31   0
   5  13  18 -102.24   47.25   0
   6  10  17   79.57   39.72   0
  -2  16  14  -31.96   43.08   0
  -1   8   3  910.92   35.43   0
  -1  12   7  145.44   44.88   0
   0   6   2  369.34   29.03   0
   0  14  10   74.05   46.74   0
   0  16  14  -79.31   46.22   0
   2  16  16   17.89   46.13   0
   3  15  15   96.45   50.35   0
   4   4   5   23.31   25.37   0
   5   1   8  863.19   37.70   0
   5  13  16  135.09   48.16   0
   6   5  11  226.02   36.89   0
   6   6  11  -17.42   36.53   0
   6   9  19   18.54   40.59   0
  -3   7   2    5.67   40.07   0
  -3  12   7  147.41   45.15   0
   1   2   1   22.64   19.12   0
   1   5   2 2298.93   28.55   0
   3  16  19  -24.16   45.82   0
   4  15  18   95.04   46.44   0
   4  15  19   26.65   41.90   0
   5  12  13   27.49   48.34   0
   6   4  11   64.61   38.57   0
   6   7  11  125.60   38.45   0
   6  10  19  -13.31   44.36   0
  -2   7   2   67.63   33.40   0
   2  11   7  217.58   35.96   0
   2  14  11  172.79   45.61   0
   3  11   8  289.77   36.12   0
   3  16  18  123.83   46.12   0
   4  13  12  165.81   48.29   0
   4  14  14   73.58   49.13   0
   4  15  17   32.57   47.09   0
   5   3   7  159.96   30.04   0
   5  13  15   27.01   47.21   0
   6  11  17   82.87   43.40   0
   6  11  18  -23.93   44.32   0
  -2  13   8  204.71   46.84   0
  -1  13   8   48.51   44.57   0
   2  10   6   -9.41   31.96   0
   2  12   8   25.17   42.63   0
   2  16  15   30.23   44.48   0
   3   9   6  519.87   33.13   0
   3  12   9  180.12   36.68   0
   3  14  12   17.39   45.77   0
   3  15  14   43.70   49.31   0
   4   7   6  114.16   31.08   0
   5  10  10  223.78   36.02   0
  -1  15  11   77.80   45.41   0
  -1  16  13    5.83   43.24   0
   0  17  16  100.44   41.64   0
   2   3   2 2627.48   29.78   0
   3   2   3 1109.10   27.92   0
   4   5   5   32.19   27.08   0
   4  15  16   89.60   49.68   0
   5  11  11   48.14   40.25   0
   5  13  14   34.26   45.18   0
   5  14  17   31.21   44.77   0
   5  14  18  -11.39   43.68   0
   5  14  19    9.70   42.38   0
   6   5  10   34.46   33.52   0
   6   6  10  442.16   35.36   0
   6  10  20    4.68   39.40   0
  -2  15  11   -1.43   44.17   0
  -2  16  13   -3.18   43.45   0
   0  13   8  180.74   42.17   0
   0  16  13   77.20   43.62   0
   2   6   3 2075.63   30.39   0
   3   6   4 1268.13   30.06   0
   3  13  10  -29.96   44.43   0
   3  16  16   14.05   46.42   0
   4   9   7  232.68   34.16   0
   4  12  10  110.33   38.25   0
   4  14  13    5.77   47.03   0
   5   6   7  176.18   31.13   0
   5  12  12  154.80   47.52   0
   5  14  16   30.08   53.45   0
   6   4  10   29.64   32.48   0
   6  11  20    3.67   39.68   0
   6  12  18   76.25   44.39   0
  -1   7   2   23.15   31.03   0
   2  15  12    1.40   44.81   0
   2  17  17   10.59   46.41   0
   3   8   5  567.20   32.45   0
   3  15  13   62.82   49.73   0
   4  15  15   25.55   50.86   0
   6  12  19  -27.54   43.55   0
  -1  14   9  -59.62   44.33   0
  -1  17  15  -22.11   42.45   0
   0  17  15  -35.81   42.60   0
   3  14  11   62.55   48.57   0
   4  13  11   13.07   48.42   0
   5  13  13   59.83   46.53   0
   5  14  15  110.85   55.04   0
   6  10  12  -60.79   42.42   0
   6  11  13  160.15   45.43   0
   2   8   4  302.43   30.28   0
   2  14  10    3.49   45.95   0
   4   6   5   35.41   29.07   0
   5  11  10  257.08   40.62   0
   5  15  19   -7.64   47.28   0
   1   3   1   59.13   22.10   0
   1   9   4  169.59   32.78   0
   1  17  15    3.05   45.51   0
   3  17  18   38.57   44.36   0
   4  14  12  130.48   49.63   0
   4  15  14  -37.21   52.37   0
   4  16  17    9.76   49.94   0
   5   7   7   50.56   31.40   0
   5  10   9   45.38   37.35   0
   5  12  11   62.03   45.30   0
   5  15  18   -3.12   43.57   0
   6   6   9  -18.00   35.46   0
   6  12  14  -19.28   44.00   0
   6  13  19   29.81   43.13   0
  -1  16  12   18.28   42.35   0
   0  16  12  -27.73   45.40   0
   2   4   2 1921.13   28.45   0
   3   0   3  130.19   29.20   0
   3   4   3 1182.26   27.01   0
   3  11   7  346.20   35.28   0
   3  12   8  -33.98   37.04   0
   5   9   8   58.79   35.57   0
   5  15  17   60.30   44.98   0
   6   4   9  289.15   33.74   0
   6  10  11  -13.58   42.83   0
   6  13  16   -6.35   43.94   0
  -2  11   5  136.50   44.20   0
  -1  11   5  134.93   39.68   0
  -1  15  10  111.44   48.40   0
  -1  17  14    0.03   43.19   0
   0  17  14  101.38   45.33   0
   3   7   4  116.58   29.91   0
   3  10   6  249.79   35.39   0
   3  13   9  146.42   45.98   0
   3  15  12  108.90   46.39   0
   3  16  14   17.65   46.46   0
   3  17  17  -26.58   47.77   0
   4  11   8  -37.25   38.07   0
   4  12   9   83.29   39.29   0
   4  16  16  100.11   47.66   0
   5  13  12  -18.41   49.12   0
   5  15  16  -51.48   49.26   0
   6   9  10   59.36   41.28   0
   6  11  12   80.78   44.23   0
   6  13  15   65.47   49.11   0
   7   7  15   63.96   41.67   0
   7   8  15   88.23   41.14   0
   7   9  16   62.17   40.52   0
  -2  10   4   48.77   39.04   0
  -2  12   6   91.50   46.40   0
   0  15  10   49.75   46.26   0
   1  16  12   51.23   44.87   0
   2  11   6  389.72   38.74   0
   4  10   7  638.86   36.38   0
   4  13  10  155.84   45.79   0
   4  15  13   80.46   52.87   0
   5   3   6  399.32   30.72   0
   6  12  13   44.24   45.87   0
   7   8  14  -19.15   40.56   0
   7   9  15  -32.39   39.08   0
   7   9  17   11.35   39.27   0
   7  10  16  129.04   42.08   0
   7  10  17   57.02   42.30   0
  -2  15  10  -31.84   43.85   0
  -1  13   7   83.16   45.00   0
   0   5   1 2632.25   33.68   0
   0  12   6  176.26   40.58   0
   1   8   3  403.07   31.15   0
   2  13   8   30.03   41.80   0
   3  14  10  -19.20   49.23   0
   3  17  16   82.71   46.29   0
   4   3   4   60.78   27.54   0
   4   7   5  439.38   32.75   0
   4  16  15   39.69   49.97   0
   5   8   7   76.87   33.34   0
   5  15  15   87.71   55.56   0
   6  14  17  135.91   49.17   0
   7   6  14   66.78   41.68   0
   7   7  13   98.01   42.08   0
   7   8  13   90.34   41.88   0
   7  10  15    1.88   42.18   0
   7  10  18   -7.48   45.39   0
  -3  11   5   42.27   47.44   0
   0  13   7  146.44   46.65   0
   1  15  10  189.29   46.55   0
   2   7   3   75.63   29.04   0
   3   5   3   63.92   26.90   0
   4   4   4  119.86   26.48   0
   4   9   6  205.15   33.47   0
   4  14  11    0.87   47.92   0
   5   6   6  551.91   33.55   0
   5  11   9   64.33   39.63   0
   5  12  10   18.30   41.25   0
   5  16  18  -57.26   45.70   0
   6  13  14   63.38   47.64   0
   6  14  16   85.80   48.94   0
   7  11  16   34.28   44.35   0
  -3  10   4  191.40   43.96   0
  -2   6   1  806.01   36.99   0
  -2   9   3  410.50   39.13   0
  -2  13   7  194.46   45.54   0
  -1   9   3  -22.73   36.93   0
   0  10   4  151.34   35.38   0
   3  16  13  -29.65   46.01   0
   5  10   8  107.15   38.02   0
   5  13  11  108.99   49.81   0
   5  16  17  -54.85   51.90   0
   6   5   8  169.15   32.41   0
   6  10  10    6.44   40.19   0
   6  11  11  127.87   44.87   0
   6  12  12  -12.67   49.16   0
   7   9  13   57.80   42.93   0
   7  10  14   17.34   42.73   0
   7  11  15  -29.03   45.93   0
   7  11  18   17.34   44.39   0
  -1  14   8  176.16   48.37   0
  -1  17  13  -14.57   45.69   0
   0  16  11  -68.34   46.27   0
   2   5   2  434.07   26.35   0
   3  15  11   30.31   47.45   0
   4  17  17   78.01   44.72   0
   5  15  14    9.97   52.81   0
   6   4   8   34.59   34.80   0
   6  14  15    1.23   54.33   0
   7   6  12   26.51   43.81   0
   7   8  12  208.20   44.04   0
   7  11  19  -71.24   43.51   0
  -1  16  11    0.84   43.08   0
   1   4   1 3785.78   33.79   0
   1  17  13   67.10   46.85   0
   2   9   4  207.50   32.42   0
   5  16  16   12.95   53.67   0
   6   9   9   83.14   39.23   0
   6  13  13   52.90   47.01   0
   6  15  18   52.35   47.10   0
   7   9  12  108.25   42.85   0
   7  12  16   46.66   46.30   0
   7  12  18   -6.83   44.85   0
   7  12  19  -28.10   43.29   0
  -2  14   8   36.05   46.99   0
  -1   6   1  581.28   32.05   0
   1  16  11  110.04   45.49   0
   3  12   7  379.41   41.03   0
   4   8   5   82.38   33.11   0
   4  13   9    2.37   47.60   0
   4  17  16   79.30   46.72   0
   6  15  17   63.01   46.01   0
   1  14   8  209.06   45.00   0
   1  18  15  100.15   43.51   0
   3   6   3   33.24   28.05   0
   3  11   6  114.68   34.60   0
   3  13   8   90.73   42.87   0
   3  16  12   55.55   47.97   0
   3  17  14   36.62   50.57   0
   4  11   7  119.34   38.72   0
   6  11  10   85.05   46.61   0
   6  12  11   41.29   50.55   0
   6  14  14   83.21   53.56   0
   6  15  16  102.77   48.46   0
   7   6  11  280.83   41.26   0
   7   7  11  196.65   42.49   0
   7   8  11   70.59   41.16   0
   7  13  18   29.08   47.41   0
  -1  15   9   59.64   46.35   0
   3  14   9   14.03   47.12   0
   4  14  10   31.99   49.02   0
   4  16  13  -23.02   51.50   0
   5  12   9   74.59   39.78   0
   5  15  13  109.29   51.70   0
   5  16  15   77.86   52.13   0
   6   8   8   69.70   37.67   0
   6  10   9  129.63   43.41   0
   6  13  12   36.19   47.49   0
   7  13  17  100.68   47.04   0
   1   7   2   81.89   28.37   0
   1  15   9  107.09   50.47   0
   2  12   6  491.86   42.11   0
   4  10   6   11.86   35.65   0
   4  17  15   21.39   45.40   0
   5  11   8  149.33   40.18   0
   6  15  15  218.50   54.73   0
   7   5  11    8.16   43.77   0
  -1   8   2  288.33   35.97   0
   0   2   0 2791.86   38.20   0
   0  17  12   54.52   43.67   0
   1  17  12   -7.74   48.73   0
   3  15  10   72.23   47.72   0
   4  15  11   27.59   48.52   0
   5   5   5  677.99   32.33   0
   5  10   7  166.05   41.08   0
   5  14  11   32.65   50.02   0
   5  17  17  -52.86   48.88   0
   6  14  13  -17.00   53.41   0
   1  18  14  -79.44   43.69   0
   2  11   5  220.91   38.50   0
   5  16  14   48.11   52.66   0
   6   9   8  284.07   37.83   0
   6  16  17  -34.51   50.50   0
   7   6  10   12.57   42.59   0
   7   7  10  228.77   40.98   0
   7  14  18  -24.27   45.01   0
   4   7   4  375.39   33.62   0
   4  16  12   25.79   53.43   0
   5  15  12  121.43   51.83   0
   5  17  16   16.17   49.89   0
   6   4   7  374.81   33.93   0
   6   7   7  579.00   34.97   0
   6  12  10  -31.28   49.40   0
   6  15  14   48.23   57.28   0
   7   8  10  201.90   42.52   0
  -1  16  10  -42.30   42.99   0
   1   5   1  478.80   25.52   0
   2  17  12   64.96   47.51   0
   3   7   3   45.20   30.94   0
   3   9   4  434.38   35.00   0
   4  13   8  248.78   45.73   0
   6  11   9  277.99   42.09   0
   6  16  16  -68.17   48.23   0
   4  12   7   54.17   39.51   0
   4  14   9  152.86   49.99   0
   4  18  16   90.20   49.10   0
   5   9   6  125.56   37.54   0
   5  13   9   23.67   47.78   0
   5  16  13 -104.77   56.51   0
   6  14  12  -20.98   51.97   0
   7  12  12   78.20   49.38   0
   7  14  15  -17.55   52.60   0
   3   3   2 4036.47   35.07   0
   3  13   7  111.52   43.43   0
   4  11   6   76.49   38.72   0
   5   7   5  498.06   34.61   0
   5  12   8   67.54   40.53   0
   5  17  15   10.80   51.33   0
   6   8   7  235.60   36.09   0
   6  10   8  -45.49   39.24   0
   7  11  11    9.37   47.29   0
  -6  14  10  -27.71   35.08   0
  -5  10   3  -29.72   38.39   0
  -4   9   2    3.18   34.24   0
  -2   7   1   23.34   27.37   0
   0  12  21  -73.81   43.70   0
   0  13  11   -6.91   46.02   0
   0  14  15   -5.49   49.12   0
   0  14  16  -11.72   49.88   0
   1  11   9  -21.24   35.80   0
   1  12  11   32.90   37.16   0
   2  11  13  -17.31   41.99   0
  -5  15  12   33.91   37.32   0
  -4  10   3  116.82   37.82   0
  -4  15  12    7.52   40.02   0
  -3  12   6  -34.13   39.78   0
   0  11   7  195.61   35.28   0
   0  14  14   85.02   48.96   0
   1  13  15 -109.55   43.27   0
   1  13  16   44.75   45.25   0
   2   5   5  154.08   23.19   0
   3   4   9    3.10   29.70   0
   3   6  14  101.51   40.16   0
   3   7  14   13.16   42.23   0
  -2  11   5   68.60   32.77   0
  -1  13   9   74.08   39.89   0
  -1  15  16  -36.27   46.44   0
  -1  15  17   39.08   48.62   0
   0   6   2  401.82   22.69   0
   0  14  18   18.56   43.52   0
   1   8   5  353.35   27.78   0
   1   9   6  143.33   29.74   0
   1  12  19   52.62   43.59   0
   1  13  14  275.34   43.55   0
   1  13  17  -69.31   42.83   0
   2  10  18   31.90   40.52   0
   2  11  12   73.57   34.64   0
  -5  11   4   36.12   36.54   0
  -5  13   7  -29.09   38.27   0
  -4  13   7   72.56   40.41   0
  -4  14   9   11.96   37.89   0
  -1  14  11  102.69   40.69   0
  -1  15  18   88.87   46.74   0
   0  14  13  -13.94   44.25   0
   1   3   2 1489.07   23.71   0
   1   7   4  775.15   26.56   0
   1  13  13   16.48   44.44   0
   2   7   6   23.54   26.45   0
   2   8   7  355.67   27.86   0
   2   9   8 1125.94   31.69   0
   3   8  14   17.84   38.82   0
  -4  11   4   70.28   36.25   0
  -3  14   9   30.02   37.60   0
  -1  15  19   72.27   44.47   0
   0  12   8  346.26   37.87   0
   0  13  10  140.61   40.42   0
   0  14  19  -10.53   43.85   0
   1  12  10  114.05   33.75   0
   2  11  11  275.44   34.27   0
  -5  15  11   32.79   34.85   0
  -4  15  11  -45.73   38.34   0
  -3  10   3    2.18   32.50   0
  -3  13   7   55.21   38.89   0
  -2  12   6  118.95   35.31   0
   1  11   8  306.89   34.25   0
   1  13  12   97.87   44.27   0
   2  10   9   80.86   29.75   0
   2  12  15  -10.71   40.65   0
   3   3  12   51.77   41.99   0
   3   6  15   20.86   42.44   0
   3   7  15  145.16   38.73   0
   3   8  15  159.60   41.53   0
  -3  15  11    3.41   36.22   0
  -2  16  16    6.24   45.62   0
  -2  16  17    4.27   41.17   0
  -1  15  13   27.35   43.44   0
   1  10  21   52.72   41.65   0
   2   3   4 1039.10   24.44   0
   2   6   5 1613.62   27.74   0
   2   9  19   46.89   39.04   0
   2  11  18  -24.53   38.68   0
   2  12  13  118.45   41.35   0
   3   7   9  157.72   28.46   0
   3   8  10  145.69   30.00   0
  -4  12   5  -44.47   37.04   0
  -3  11   4   -9.83   34.72   0
  -2  16  15   49.76   42.81   0
   0   9   4  222.92   26.56   0
   0  10   5  234.51   29.50   0
   0  15  16   19.27   46.83   0
   1   6   3  401.14   23.32   0
   2   2   4 1126.86   25.03   0
   2  10  19   64.88   40.56   0
  -4   6  -1   -0.78   28.13   0
  -4  16  13  -69.53   36.32   0
   0   8   3   30.66   26.24   0
   0  11   6   87.54   34.16   0
   0  13   9    8.29   41.12   0
   0  15  18  -18.57   42.42   0
   1  12   9  132.74   33.87   0
   1  13  11   24.08   41.06   0
   1  14  15   85.95   43.31   0
   1  14  16   60.92   45.81   0
   2  11  10    5.14   31.79   0
   2  12  12   73.92   36.53   0
   3   6   8  -13.66   27.68   0
   3   9  11  177.11   33.30   0
  -5  14   8   25.26   34.93   0
  -5  15  10  -64.43   39.60   0
  -4  14   8    6.98   35.36   0
  -4  15  10  -12.22   37.00   0
  -3   7   0   27.88   27.14   0
  -3  12   5   75.06   36.03   0
  -3  16  13  -18.91   40.16   0
  -2  13   7  138.56   37.44   0
  -2  16  14  -38.65   41.75   0
  -1  15  12  154.82   40.62   0
   0   5   1 2655.77   28.83   0
   0  14  11   -4.37   40.38   0
   0  15  14   41.00   48.98   0
   1   4   2  316.60   20.03   0
   1  14  14    3.81   43.30   0
   1  14  18   78.25   44.57   0
   2   4   4 2455.49   26.60   0
   2   9   7   39.45   28.12   0
   3   7  16  199.05   42.15   0
   3   8  16  -13.73   39.25   0
  -3  14   8  131.32   36.11   0
  -2  10   3  132.09   30.21   0
  -1  16  17   29.80   44.91   0
  -1  16  18  -42.18   43.44   0
   0  15  19  -50.46   44.10   0
   1   9   5  704.48   29.00   0
   1  10   6  587.80   31.41   0
   1  14  13   35.62   47.05   0
   2   8   6  444.98   28.84   0
   2  11  19   19.14   43.02   0
   2  12  18   71.49   42.07   0
   3   8   9   33.49   29.81   0
   3   9  16  170.62   41.03   0
  -4  13   6   65.14   36.86   0
  -4  16  12  -65.08   40.88   0
  -2   9   2   38.41   30.19   0
  -1  16  15    2.18   40.61   0
   0   2   0 2827.40   33.23   0
   0   7   2  942.44   26.33   0
   0  12   7  155.73   34.96   0
   0  15  13  112.47   45.44   0
   1   8   4   54.77   27.59   0
   1  11   7  134.34   31.63   0
   2  12  11  122.07   33.56   0
   2  13  16  -33.81   42.05   0
   3   7   8  175.31   28.82   0
   3   9  10   20.67   30.90   0
   3  10  12   41.77   33.39   0
   0  14  10    4.28   43.09   0
   1  13  10   19.87   40.88   0
   2   5   4 1434.97   26.75   0
   2   7   5  589.03   27.30   0
   2  11   9  166.83   34.25   0
   2  12  19   -8.14   47.47   0
   3   5   7 2518.41   30.72   0
   3  10  16  180.16   43.24   0
  -2   8   1  108.58   28.50   0
  -2  14   8  -24.36   38.79   0
   0  13   8  169.62   41.74   0
   1  12   8   71.34   35.94   0
   1  14  12  -53.66   42.15   0
   2  10  20    6.23   44.04   0
   2  13  13  178.89   43.54   0
   3   2   9  787.17   40.53   0
   3   2  10  556.75   42.27   0
   3   8  17  123.75   44.50   0
   3   9  17   82.82   43.05   0
  -1  16  13   38.12   45.45   0
   0  16  16   56.92   52.49   0
   0  16  17   55.71   47.83   0
   1  15  15   79.72   50.64   0
   1  15  16   31.74   51.48   0
   1  15  17   87.12   43.59   0
   2  11  20   47.54   47.92   0
   2  13  12  272.02   47.49   0
   3   6   7 1165.47   29.21   0
   3   9   9  142.10   32.79   0
   3  10  17  -16.36   41.47   0
  -4  10   2  165.07   35.09   0
  -4  16  11  -45.75   39.79   0
  -3  15   9   72.65   39.31   0
   0  16  15   53.06   49.19   0
   0  16  18  133.40   44.66   0
   1   5   2 2360.28   28.91   0
   1   7   3 2155.44   30.37   0
   2  10   7  212.46   35.36   0
   3   3   7  498.67   29.75   0
   3   8   8  460.76   29.61   0
   3  10  10   35.98   32.99   0
   3  11  12  124.16   36.66   0
  -4   9   1  163.85   36.03   0
  -4  11   3    8.88   38.26   0
  -4  14   7   -6.08   37.84   0
  -3  16  11   62.25   37.52   0
  -2  13   6   48.78   42.76   0
   1  14  11  132.22   48.08   0
   2   9   6  226.44   31.50   0
   2  12  20   -4.24   48.50   0
   2  13  19   69.12   47.64   0
   2  14  15   16.59   47.91   0
   2  14  16   16.10   48.47   0
   2  14  17   93.55   46.13   0
   3  11  17  -76.02   47.98   0
  -3  14   7  -40.10   43.22   0
  -2  15   9  138.08   40.96   0
   0   3   0 1877.95   30.08   0
   0  14   9   46.76   44.48   0
   0  15  11  113.90   44.64   0
   0  16  14  163.40   49.80   0
   1  15  13  -39.91   51.47   0
   2   6   4  725.50   26.91   0
   2  13  11   29.66   43.28   0
   2  14  14  130.52   44.83   0
   3   9  18   21.01   42.73   0
   3  11  11   50.17   36.16   0
   3  12  14  124.51   46.96   0
  -4  12   4   80.12   38.57   0
  -3  10   2   79.48   38.43   0
  -3  11   3  168.14   40.46   0
  -2   7   0  644.46   32.20   0
  -2  16  11   46.78   42.69   0
  -1  10   3  541.55   32.94   0
  -1  11   4  126.59   35.85   0
  -1  17  16 -111.11   48.79   0
   0   6   1    6.58   27.59   0
   1  10   5  -11.35   31.38   0
   1  11   6   23.80   34.69   0
   2   8   5  112.61   30.78   0
   2  12   9   26.33   41.16   0
   2  14  13  -24.22   49.06   0
   3  12  13   22.57   42.14   0
  -4   8   0   28.40   35.91   0
  -3   9   1    6.65   35.17   0
  -1  12   5  227.68   37.21   0
   0  16  13   24.64   53.75   0
   1   9   4  167.45   34.77   0
   1  12   7  445.67   39.75   0
   1  14  10  208.02   48.88   0
   2  13  20   -5.56   52.94   0
   3   5   6    8.12   26.49   0
   3   9   8   37.51   35.25   0
   3  10   9  353.19   34.56   0
   3  11  18  -45.50   44.22   0
  -4  13   5   16.21   45.91   0
  -4  15   8   52.92   42.35   0
  -4  16  10   88.72   41.61   0
  -3  16  10  -40.66   48.51   0
  -1  13   6  207.43   42.35   0
   1  15  12   51.50   48.68   0
   1  16  16   90.71   56.82   0
   1  16  17    5.56   53.11   0
   3   4   6  215.28   30.10   0
   3   8   7 1880.92   37.90   0
   3  11  10  142.28   37.49   0
  -3  13   5    1.60   46.16   0
  -3  15   8   -6.71   42.15   0
  -1  17  14   25.59   50.57   0
   0  15  10  -21.43   48.24   0
   0  17  17  146.47   57.01   0
   1  13   8   14.52   44.94   0
   1  16  15  -18.70   56.31   0
   2  12  21   -4.72   48.20   0
   2  13  10  184.72   41.39   0
   2  15  16  132.09   58.73   0
   3   6   6  262.93   31.41   0
   3  12  18  -93.06   48.01   0
   3  13  14   67.49   50.73   0
  -3  17  12   27.53   44.83   0
  -2  10   2   67.91   39.80   0
  -2  11   3    2.30   44.54   0
  -2  12   4   15.55   48.91   0
  -2  15   8  -16.41   46.06   0
  -2  16  10   26.98   45.56   0
   0  16  12   -5.74   46.52   0
   0  17  16   10.22   50.67   0
   1   6   2 1328.60   29.57   0
   2   7   4  229.38   30.42   0
   2  11   7  252.46   38.72   0
   2  14  20    0.40   49.06   0
   2  15  15  113.21   57.09   0
   2  15  17   20.89   47.05   0
   2  15  18   17.46   56.73   0
   3  11  19  -20.73   50.46   0
   3  12  11   64.11   39.28   0
   4   7  12  457.17   41.88   0
   4   8  12   30.78   41.99   0
   4   8  13   62.78   41.05   0
  -4  14   6   43.06   46.62   0
  -2  17  12   65.27   53.29   0
  -1   8   1    7.85   34.74   0
  -1  14   7  -15.80   46.30   0
   1  15  11  -38.40   52.00   0
   2  12   8   57.35   41.21   0
   2  15  14   16.87   56.84   0
   4   7  11   22.47   37.21   0
   4   7  13   56.91   48.33   0
   4   8  14   18.44   45.28   0
   4   9  13  132.92   46.47   0
   4   9  14  -42.48   40.59   0
  -2  13   5  123.28   46.28   0
   0   4   0 2280.89   34.83   0
   0  17  14   19.29   56.09   0
   1  16  13  143.73   60.13   0
   2   3   3  127.37   25.60   0
   2   9   5  118.91   36.24   0
   2  14  11  121.31   53.96   0
   3   7   6  970.58   33.33   0
   3  10   8  415.15   37.47   0
   3  11   9   39.71   38.24   0
   3  12  19  -20.01   50.66   0
   3  13  18   37.01   53.32   0
   2  13   9   95.40   47.23   0
   2  15  13  -17.09   53.87   0
   3   9   7  670.90   37.61   0
   3  14  15   56.80   56.94   0
   3  14  16   15.28   57.68   0
   2   5   3 1216.23   30.55   0
  -7  11   9   22.55   36.87   0
  -5  12  12   23.48   40.33   0
  -2   7  21  -15.53   35.92   0
  -2  10   8   81.17   32.15   0
  -2  10  19   27.35   40.71   0
  -2  11  17  139.50   44.93   0
  -1   4   1  590.02   21.67   0
  -1   7  20  -14.77   38.52   0
   0   9  10  198.09   28.65   0
   1   8  12  409.89   26.85   0
   2   1  12   15.84   30.56   0
   2   3  13  157.82   30.13   0
  -6  12  12   35.96   39.01   0
  -3  11  19   49.51   42.85   0
  -2   8  21  -17.76   39.18   0
   0   5  19   23.22   34.07   0
   0   8  18  -40.74   37.18   0
   1   7  16  -33.02   33.31   0
   1   8  14   61.42   30.06   0
   2   4  13   43.55   28.51   0
  -7  12  13   22.83   35.97   0
  -6  10   6  -33.81   37.95   0
  -5  10   6   59.30   38.01   0
  -4   8   3   55.55   29.54   0
  -4  12  18   32.91   46.36   0
  -3   9   5  433.52   30.21   0
  -3  12  13   58.79   41.39   0
  -3  12  16  -39.85   45.14   0
  -2  11  18   43.55   44.92   0
  -1   9   7  270.87   29.03   0
  -1  10  18   49.20   39.87   0
  -1  11  14   51.71   41.24   0
   0   6  19  -25.22   34.61   0
   1   4  17   77.11   35.66   0
   1   7   8 1020.24   26.56   0
   2   4   8   -0.20   20.38   0
   2   5  13  306.33   29.36   0
  -7  12  12   67.64   37.97   0
  -6  11   8  -11.67   38.96   0
  -6  12  11   50.40   39.63   0
  -5  11   8  133.43   36.62   0
  -5  12  11   48.95   36.95   0
  -3   6   1   29.15   25.80   0
  -3  12  12   23.54   41.97   0
  -3  12  17   26.74   44.90   0
  -1  10   9  171.81   29.53   0
  -1  11  13  281.91   40.50   0
   0   7  19   11.87   38.22   0
   0   8   7  119.27   26.71   0
   0   9   9  283.47   28.97   0
   1   6  17   63.69   33.78   0
   1   8  10  487.09   27.47   0
   2   5   9  422.79   24.40   0
  -4  11   8   12.13   38.87   0
  -3  11  20  100.12   45.36   0
  -2   9  21  -32.69   40.43   0
  -1  11  12   22.86   35.75   0
   2   4  14  246.99   33.44   0
  -3   7   2   -1.68   27.16   0
  -2  12  14  -48.91   40.26   0
  -2  12  15   38.89   43.28   0
  -2  12  16    1.91   45.74   0
  -1   8   5 1392.93   29.13   0
  -1   9  20  102.89   40.89   0
  -1  11  17  125.84   43.40   0
   0   5   3  144.07   20.45   0
   0   6   4  128.42   23.28   0
   0   8  19   17.99   36.72   0
   0  10  11   45.52   31.68   0
   1   5   5 1619.70   23.99   0
   1   7  17   38.46   37.13   0
   2   5  14   76.68   34.21   0
  -5  12  10   81.63   37.34   0
  -2  12  13   78.29   39.82   0
  -2  12  17    8.05   45.01   0
  -1   7  21  -17.22   40.27   0
   0  10  17  124.31   39.48   0
   1   4   4  584.91   19.68   0
   1   6   6  415.13   23.55   0
   1   8   9  191.57   27.48   0
   1   9  12  460.05   32.24   0
   1   9  14  253.38   32.94   0
   2   6  10 1127.90   27.26   0
  -6  12  10   16.86   37.41   0
  -4   9   4   73.18   32.45   0
  -4  12  10   91.57   39.09   0
  -3  12  19   84.68   44.78   0
  -2  11   9  295.96   35.74   0
  -1   8  21  -41.43   41.41   0
  -1  11  18   -4.19   43.49   0
   1   5  18  -40.61   36.07   0
   1   6  18   68.95   38.75   0
   1   8  17   78.34   36.24   0
   1   9  15  -55.31   34.97   0
   2   4   7  673.18   21.24   0
   2   5   8  519.40   24.50   0
  -4  13  16  -25.11   41.88   0
  -4  13  17  -22.30   46.04   0
  -3   8   3   38.51   29.52   0
  -3  10   6  231.00   32.07   0
  -2  11  20  -49.13   43.84   0
  -2  12  18   -5.12   44.18   0
  -1   3   0 2774.74   32.71   0
  -1  10   8  334.14   29.75   0
   0   4   2   44.60   19.89   0
   0   6  20   47.82   36.23   0
   0   7  20  -11.60   41.86   0
   0   9  19  -46.92   40.71   0
   0  10  10  181.50   30.66   0
   1   7   7   64.41   25.81   0
   1   9  11  384.96   29.83   0
   2   3   6   59.75   21.34   0
  -6  13  14   80.07   35.34   0
  -5  13  13   -2.35   39.33   0
  -3  13  15   -1.53   42.66   0
  -2   3  -1  102.56   26.90   0
  -1   9   6   85.58   27.05   0
  -1  11  10  166.43   36.06   0
  -1  12  15   99.52   44.07   0
   2   6   9  442.15   24.50   0
   2   6  15  291.11   36.47   0
   2   7  12  225.29   27.35   0
  -6  11   7   40.21   37.97   0
  -6  13  13   78.61   37.16   0
  -4  11   7   16.63   38.09   0
  -4  13  18  -96.10   43.47   0
  -2  12  11   53.59   38.54   0
  -2  12  19   14.55   40.64   0
  -1   9  21   54.01   37.90   0
  -1  12  14  128.97   40.89   0
  -1  12  16   16.75   42.54   0
   0   8   6 1410.74   28.15   0
   0   8  20   26.94   40.03   0
   2   7  11  477.51   25.90   0
  -5  10   5   -5.88   36.93   0
  -5  12   9   24.25   38.86   0
  -4  12   9   14.66   40.15   0
  -3  13  18   61.46   46.69   0
  -1  12  13   -7.42   41.75   0
  -1  12  17   11.63   45.04   0
   1   3   3   21.89   17.15   0
   1   8   8  371.59   27.79   0
   1   8  18   18.44   35.47   0
  -4  13  12   92.83   39.06   0
  -3   9   4  294.58   29.87   0
  -2  13  15    0.50   45.34   0
  -2  13  16   22.73   47.25   0
   0   9  20    8.60   42.42   0
   0  10   9  120.39   29.62   0
   1  10  13   80.99   30.06   0
   1  10  14   44.10   34.55   0
   1  10  15   28.53   36.75   0
   2   5   7  172.88   22.62   0
   2   7  15    2.80   32.61   0
  -6  13  12   27.40   37.03   0
  -4  10   5  145.34   35.25   0
  -3  11   7   46.37   35.46   0
  -2  12  20   -2.82   42.36   0
  -2  13  17   48.88   43.29   0
   0   9   7  256.94   27.30   0
   1   6  19   45.11   35.38   0
   1  10  12  -16.89   30.25   0
   1  10  16   15.76   38.49   0
   2   0   5  340.06   25.97   0
   2   4  16   48.11   37.16   0
   2   6  16  -28.30   34.09   0
   2   8  12   51.95   30.14   0
   2   8  13  119.19   31.51   0
  -5   8   2   84.90   34.78   0
  -3  12   9   73.07   36.18   0
  -2  13  18  -10.16   47.32   0
  -1  10   7   35.19   28.06   0
   1   6   5  648.87   23.36   0
   1   7  19   10.12   34.65   0
   1   9   9  913.20   28.39   0
   1   9  18    0.99   36.81   0
   2   2   5  106.61   18.92   0
   2   4   6 1057.40   20.54   0
   2   7  16   25.38   36.25   0
  -5  13  11   75.42   36.42   0
  -4  13  11  -33.96   35.72   0
  -2  13  13  121.40   38.80   0
  -1  12  19  -51.75   37.85   0
   1   7   6  154.14   24.25   0
   1   8  19   86.16   36.82   0
   1  10  11  281.86   31.08   0
   2   7   9   56.94   24.67   0
   2   8  11  366.21   26.51   0
  -4   7   1    4.06   31.98   0
  -4  14  17  -21.91   39.94   0
  -2  13  19  -79.39   44.73   0
   0   8  21   14.83   38.31   0
   0  10  20   68.55   39.16   0
   0  12  16   77.48   40.13   0
   1   5   4    6.47   19.99   0
   1   8   7  203.17   26.41   0
   2   8  16   40.10   35.32   0
  -5  12   8   59.69   35.39   0
  -5  14  15   36.61   35.28   0
  -4  12   8   76.94   35.65   0
  -3  10   5    6.41   30.53   0
  -2   7   2   89.60   24.70   0
  -2   8   3  456.45   27.03   0
  -1  12  20   42.55   42.60   0
  -1  13  15  -10.38   42.32   0
  -1  13  17  -11.28   45.19   0
   0   7   4 1535.41   27.16   0
   0   9  21   42.77   41.10   0
   0  10   8  450.66   28.18   0
   0  11  10    4.15   30.50   0
   0  12  17   -6.55   41.28   0
   1   1   2 3963.58   34.51   0
   1   9  19  116.31   36.75   0
   1  11  15  -20.45   39.50   0
   2   5  17   -9.75   35.52   0
   2   6  17   95.45   37.31   0
   2   7  17   78.59   35.95   0
   2   8  10  109.65   26.60   0
   2   9  14   46.84   33.10   0
  -5   9   3  -19.81   36.80   0
  -5  11   6   15.40   35.10   0
  -5  14  14  -12.12   34.85   0
  -4   8   2  259.90   32.28   0
  -4  11   6   -7.42   35.43   0
  -3  14  15  -21.79   42.29   0
  -3  14  16   12.43   39.04   0
  -3  14  17   19.75   42.24   0
  -1  11   8  294.28   32.95   0
  -1  13  14    1.45   38.72   0
  -1  13  18  -33.38   43.27   0
   0   3   1 1244.75   22.46   0
   0   6   3  202.48   21.05   0
   1  10  10   54.70   29.17   0
   1  11  13  154.61   33.97   0
   1  11  14   36.47   37.29   0
   2   9  13  410.84   30.92   0
  -4  13  10   40.59   35.79   0
  -3  12   8  -26.02   38.72   0
  -3  14  18    1.53   40.61   0
  -2   9   4   32.70   27.76   0
   0  12  12   16.75   37.96   0
   1   7  20   -8.47   37.56   0
   1  11  17  103.22   37.91   0
   2   3   5 1798.91   23.79   0
   2   6   7  851.37   23.87   0
   2   7   8    5.29   23.83   0
   2   8  17    9.26   37.06   0
   2   9  12  155.45   27.96   0
  -6  13  10   12.14   34.90   0
  -4   9   3  444.89   34.21   0
  -4  14  13  -66.34   36.50   0
  -3  13  10  -11.82   38.89   0
  -2  14  16  123.84   40.47   0
  -2  14  17    4.91   41.50   0
   0   9   6  340.19   28.51   0
   0  10  21  -38.45   38.62   0
   1   8  20  -24.61   38.58   0
   1  10  19   96.17   39.33   0
   1  11  12   78.55   30.91   0
   2   5   6  509.13   21.29   0
   2   9  11   60.01   29.38   0
  -2  14  15    7.02   38.42   0
  -2  14  18   70.00   43.97   0
  -1  13  12  -13.55   39.44   0
   0  11   9  424.59   29.90   0
   0  12  19   86.25   38.44   0
   1   4   3 4450.74   28.18   0
   2   8   9  808.21   26.71   0
   3   4  11   53.94   26.02   0
   3   4  12  144.82   28.42   0
   3   5  12  331.17   28.33   0
  -4  14  12   51.12   37.73   0
  -2  10   5  318.40   29.68   0
  -2  14  14   67.98   36.93   0
   0   5   2   85.85   20.98   0
   0  12  11  216.74   35.27   0
   1   9  20  -18.98   37.58   0
   1  10   9  228.63   28.83   0
   2   6  18   36.17   36.04   0
   2   7  18  -23.76   36.95   0
   2   9  17   19.09   35.34   0
   2  10  14  191.43   34.49   0
   2  10  15  257.42   35.93   0
   3   4  10  151.76   25.17   0
   3   5  11  -42.00   25.51   0
   3   5  13   22.87   29.96   0
  -5  10   4   89.04   35.25   0
  -5  14  12  -11.50   35.95   0
  -2  14  19  -22.69   41.60   0
  -1  12   9  174.52   35.91   0
   0  10   7  433.98   27.55   0
   0  11  21   27.49   36.46   0
   0  13  17    8.19   41.74   0
   1   7   5  246.68   24.77   0
   1  12  15   21.98   38.70   0
   1  12  16   22.63   38.42   0
   2   4   5  621.26   19.84   0
   2   9  10  156.09   27.67   0
   2  10  13   77.18   30.02   0
   3   4  13  114.25   30.25   0
   3   6  12   54.48   27.76   0
   3   6  13   43.03   28.41   0
  -5  12   7  134.40   37.07   0
  -5  13   9  143.75   35.03   0
  -4  10   4  -19.14   34.63   0
  -4  12   7   44.59   37.33   0
  -4  13   9   17.14   36.69   0
  -3   8   2   17.07   27.54   0
  -2   5   0   44.04   23.61   0
  -1  13  11  290.10   39.28   0
  -1  14  16  112.91   41.84   0
  -1  14  17    0.58   42.45   0
   0  13  18   14.45   39.57   0
   1   8   6  160.97   25.14   0
   1  10  20    3.40   39.80   0
   1  12  14  159.96   39.09   0
   2  10  12  268.91   29.10   0
   3   3   9  921.48   26.55   0
   3   5  14  177.56   33.34   0
   3   6  14  130.52   34.92   0
  -6  14  12   56.24   32.20   0
  -3   9   3   37.13   28.99   0
  -1  14  15   43.82   41.61   0
  -1  14  18   -4.06   42.50   0
   0  13  13   17.18   39.39   0
   1   6   4 1424.43   23.76   0
   1   9   7  605.22   28.00   0
   1  12  13   74.67   36.04   0
   2   7   7  891.31   25.01   0
   2   8   8  239.83   25.33   0
   2   9  18   42.59   33.70   0
  -4  14  11   44.39   36.77   0
  -4  15  15  -14.64   35.23   0
  -3  12   7  120.57   37.49   0
  -3  13   9  122.00   36.97   0
  -3  15  17  -53.99   38.78   0
  -2  11   6  108.93   32.16   0
  -1  14  19   59.42   42.12   0
   0  11   8   70.71   33.46   0
   0  12  10  134.14   34.17   0
   1   2   2 1266.56   20.75   0
   1  11  10  540.40   31.19   0
   1  12  18   50.82   35.63   0
   2   6   6  635.52   22.62   0
   2  10  11   41.28   28.67   0
   3   2  11   66.35   30.21   0
   3   6  15   -5.01   33.30   0
   3   7  14   -3.75   30.21   0
  -3  14  11   32.88   36.62   0
   0  13  12  144.99   41.01   0
   1   9  21    5.41   39.76   0
   1  10   8  150.70   29.08   0
   1  11  20   61.97   38.39   0
   1  12  12  189.45   33.37   0
   2   7  19   96.17   35.49   0
   2   9   9  150.51   27.48   0
   2  11  14   88.07   36.69   0
   3   5  15   59.81   35.42   0
   3   7  15  174.45   34.84   0
  -4  15  14   75.68   34.08   0
  -3  10   4  137.89   30.22   0
  -2  15  16  -65.35   40.47   0
  -2  15  17  133.23   41.92   0
  -2  15  18   32.62   41.07   0
   0  13  20   47.23   39.46   0
   2   9  19   10.73   37.64   0
   2  11  13  -32.77   32.08   0
   3   2  12  292.18   32.62   0
   3   3   8  708.42   25.41   0
   3   8  12  306.28   30.06   0
  -3   6   0  369.60   29.41   0
  -2  13   9  -52.44   35.48   0
  -2  15  15   51.50   40.76   0
   0   8   4 1346.41   26.98   0
   1  13  15  -33.56   40.85   0
   1  13  16   43.77   41.89   0
   2   5   5  143.47   20.14   0
   3   6   9 1278.49   26.33   0
   3   7  10  181.10   23.81   0
   3   8  15  132.60   32.67   0
  -4  13   8   94.77   37.52   0
  -2  12   7   74.11   34.41   0
  -1  14  12   67.90   39.18   0
   0   7   3   85.62   22.16   0
   0  10   6  101.68   27.59   0
   0  12   9  188.78   35.03   0
   0  13  11   54.74   39.96   0
   0  14  15   -3.86   41.86   0
   0  14  18   -6.32   39.29   0
   1   5   3 2635.70   24.58   0
   1  11   9    1.32   29.89   0
   1  12  11   46.05   31.51   0
   1  13  14  243.71   42.29   0
   1  13  17   -2.48   40.36   0
   2  10  19   66.67   36.61   0
   2  11  12  111.02   29.89   0
   3   5   8  239.79   23.72   0
   3   6  16  120.16   35.80   0
   3   7  16  251.01   33.36   0
   3   8  11    8.58   27.97   0
  -5  13   8  -13.71   34.29   0
  -5  15  13  -32.13   32.56   0
  -4  14  10   63.30   34.45   0
  -3  11   5   82.04   34.29   0
  -1  15  17   43.80   41.07   0
   0  14  14   53.54   41.13   0
   0  14  19  129.98   38.71   0
   1  11  21  -25.69   38.60   0
   1  13  18    2.57   38.28   0
   2   8   7  301.41   26.54   0
   3   8  16   51.60   34.89   0
   3   9  13   22.66   31.84   0
  -5  14  10   -0.35   33.13   0
  -3  13   8   62.13   35.71   0
  -2   9   3  396.37   29.93   0
  -1  15  16   24.29   37.37   0
  -1  15  18    4.73   41.52   0
   0   4   1   21.27   19.46   0
   1   8   5  349.80   26.82   0
   1   9   6  148.38   28.48   0
   2   3   4 1078.32   21.64   0
   2   7   6   21.26   23.68   0
   2   9   8 1164.40   28.05   0
   2  12  16   10.84   38.70   0
   3   7   9  151.18   26.36   0
   3   9  12   55.49   31.72   0
   3   9  16  204.18   36.67   0
  -4  12   6  155.32   37.21   0
  -2   8   2  107.86   28.28   0
  -2  10   4   14.37   30.68   0
  -1  15  15   97.82   38.05   0
   0  11   7  168.30   30.78   0
   0  14  20   59.63   40.44   0
   1   3   2 1480.26   22.26   0
   1  10   7   26.86   31.28   0
   2   8  20   45.45   35.05   0
   2   9  20    9.97   36.72   0
   2  11  19   46.47   36.39   0
   2  12  14  -48.24   38.56   0
   2  12  17  -49.28   39.51   0
   3   6   8   27.66   24.64   0
   3   7  17   89.98   36.72   0
   3   8  10  153.82   25.44   0
  -4  15  12  -35.06   36.02   0
  -3  15  12   11.47   38.90   0
  -2  14  10   79.83   39.36   0
   0  13  10  218.73   38.88   0
   1   7   4  753.40   26.41   0
   1  12  10   76.50   31.85   0
   1  12  21   -1.08   36.35   0
   1  13  12   62.46   43.21   0
   2  10   9  110.08   28.86   0
   2  10  20   -3.31   38.33   0
   3   6  17  -13.52   36.77   0
   3   9  11  204.97   28.69   0
  -5  15  12  -12.54   34.14   0
  -3  12   6  -15.53   37.05   0
  -2  13   8  163.03   37.68   0
   0   6   2  415.68   22.33   0
   1  14  16   33.39   44.29   0
   1  14  17   61.74   44.99   0
   2   6   5 1616.12   24.90   0
   3   9  17   83.03   36.66   0
   3  10  13  210.47   32.08   0
  -2  11   5   95.82   33.21   0
   0  15  16   33.47   43.15   0
   0  15  18   -4.60   44.62   0
   1  11   8  281.96   29.52   0
   1  14  15  118.07   42.46   0
   2   4   4 2434.84   23.51   0
   2  11  10   32.81   31.92   0
   2  12  12   56.72   33.59   0
   3   5   7 2474.75   26.57   0
   3   8   9    4.83   27.35   0
  -4  14   9  -12.80   35.66   0
  -3  14   9   13.74   39.23   0
  -3  16  15  -13.87   36.14   0
   0  15  15   -5.07   43.65   0
   0  15  19   12.61   41.71   0
   1  14  19   39.93   40.65   0
   2  11  20   27.20   40.50   0
   3   7   8  151.56   25.09   0
   3   8  18   17.50   35.32   0
   3   9  10   34.16   26.72   0
  -3  15  11   16.83   40.08   0
   1  12   9  113.16   34.80   0
   2  13  15  106.63   38.94   0
   3   9  18   43.43   35.39   0
   3  11  15  139.71   39.60   0
  -1  16  17   26.33   43.39   0
   0  13   9   28.20   40.06   0
   0  14  11   42.74   42.05   0
   0  15  14   -8.14   45.88   0
   1  14  13    9.41   42.72   0
   1  14  20   -5.80   42.55   0
   2   8   6  469.71   27.60   0
   2  10   8   -9.92   30.07   0
   2  12  11   66.29   33.87   0
   2  12  20   29.36   41.56   0
   2  13  14   18.40   39.52   0
   3   6   7 1147.41   27.59   0
   3  10  11  199.63   30.42   0
  -1  16  16   44.26   40.40   0
   1   4   2  306.82   19.72   0
   2  13  13  232.25   42.58   0
   0 -12 -14  -35.21   77.02   0
   2 -12 -13   92.93   58.95   0
   2  -9  -7   45.97   48.19   0
   3  -9  -7  504.80   51.71   0
   4 -11 -11    5.55   71.14   0
   6  -6  -4   79.64   50.86   0
   7  -7  -6  117.92   63.00   0
   8  -9 -11   71.76   74.51   0
  -4  -9 -15  -43.69   50.78   0
  -1  -8  -7  211.12   37.60   0
   1 -13 -20  -20.99   68.16   0
   1 -13 -17  -50.02   62.47   0
   3 -13 -18   38.92   67.24   0
   8  -7  -7  160.25   60.28   0
  -4  -8 -12   -3.71   43.12   0
   0  -6  -4  124.41   31.18   0
   0  -2  -1  669.19   27.07   0
   2 -13 -16   75.37   69.79   0
   4  -9  -7   12.60   51.24   0
  -2  -4  -4 2554.52   35.84   0
  -1  -4  -3 4334.19   40.29   0
   0 -13 -18  -19.92   59.60   0
   0 -12 -13  132.69   58.31   0
   1 -13 -16   -0.38   63.25   0
   2  -2   0 1726.96   35.81   0
   3 -13 -16  111.92   70.22   0
   3 -11 -10   81.93   62.98   0
   5 -12 -14  -98.32   74.27   0
   5 -11 -11   22.55   70.16   0
   6  -7  -5   74.92   56.52   0
   7  -9  -9  -33.81   62.95   0
  -3 -11 -18    5.30   51.61   0
  -3 -11 -17  -33.56   54.32   0
  -2 -12 -19  -10.97   51.82   0
  -2 -12 -17  -38.79   57.45   0
  -2 -11 -13  -61.51   50.97   0
  -1  -9  -8   25.67   41.04   0
   0  -8  -6 1388.73   40.08   0
   0  -5  -3  153.03   28.94   0
   1 -11 -10  182.20   48.31   0
   1  -3  -1 2689.57   35.85   0
   2 -13 -15    6.39   73.65   0
   3 -12 -12   66.00   67.30   0
   3 -10  -8  228.59   54.08   0
   3  -7  -4   53.91   46.63   0
   3  -6  -3   40.90   39.63   0
   7  -8  -7    7.54   70.57   0
   8  -5  -4   60.26   65.46   0
   9  -8 -10  153.99   70.88   0
   9  -7  -8  -42.96   63.79   0
  -3 -11 -16   37.43   54.52   0
   1 -13 -15  -20.94   64.82   0
   1 -12 -12  215.95   62.45   0
   3  -5  -2  426.39   39.64   0
   6 -12 -15   46.14   73.98   0
   8  -9 -10  -58.47   69.96   0
  -3  -8  -9   41.56   35.99   0
  -1 -11 -11   21.75   49.17   0
   1 -10  -8  328.72   47.35   0
   2  -7  -4  330.09   41.75   0
   2  -6  -3 3810.68   46.05   0
   4 -12 -12   -4.66   76.12   0
   5 -12 -13   38.34   81.11   0
   8  -8  -8   13.15   63.28   0
   8  -6  -5   82.76   65.64   0
  -2 -12 -15    5.71   55.50   0
  -1 -13 -20   39.43   63.06   0
  -1 -13 -19  -10.04   62.13   0
  -1 -13 -18    2.06   60.57   0
  -1 -13 -17    3.37   54.67   0
   0 -12 -12    7.46   48.03   0
   0 -11 -10   31.39   50.61   0
   0  -9  -7  196.94   42.23   0
   2 -13 -14   98.84   71.70   0
   2  -8  -5  355.76   46.13   0
   2  -5  -2  257.44   38.43   0
   1 -13 -14   30.52   62.58   0
   2 -12 -11   51.21   68.90   0
   3  -4  -1  620.12   35.45   0
   4  -8  -5   16.00   52.82   0
   1  -7  -4 1543.96   38.34   0
   2 -14 -18   -0.70   73.48   0
   2  -9  -6  106.77   43.15   0
   3 -12 -11  -70.20   41.82   0
   3 -11  -9  138.77   52.32   0
   3  -9  -6   76.22   44.79   0
   5 -10  -8    8.10   64.64   0
   0 -10  -8  414.22   41.54   0
   0  -4  -2   42.13   23.63   0
   1 -12 -11   84.94   57.02   0
   1  -8  -5 1412.28   40.98   0
   1  -6  -3    9.90   21.79   0
   4 -13 -14  -32.23   27.50   0
;
loop_
_space_group_symop_operation_xyz
'x, y, z'
'-x, -y, -z'
loop_
_atom_site_label
_atom_site_type_symbol
_atom_site_fract_x
_atom_site_fract_y
_atom_site_fract_z
_atom_site_U_iso_or_equiv
_atom_site_adp_type
_atom_site_occupancy
_atom_site_site_symmetry_order
_atom_site_calc_flag
_atom_site_refinement_flags_posn
_atom_site_refinement_flags_adp
_atom_site_refinement_flags_occupancy
_atom_site_disorder_assembly
_atom_site_disorder_group
Y Y 0.24426(5) 0.34906(4) 0.29472(4) 0.01196(11) Uani 1 1 d . . . . .
N1 N 0.4689(5) 0.2818(3) 0.5548(3) 0.0169(6) Uani 1 1 d . . . . .
O1 O 0.2952(4) 0.3817(3) 0.5087(3) 0.0220(6) Uani 1 1 d . . . . .
O2 O 0.5519(4) 0.2135(3) 0.4782(3) 0.0204(6) Uani 1 1 d . . . . .
O3 O 0.5483(5) 0.2561(3) 0.6655(3) 0.0296(7) Uani 1 1 d . . . . .
N2 N 0.5201(5) 0.2133(4) 0.1251(3) 0.0210(7) Uani 1 1 d . . . . .
O4 O 0.5028(4) 0.1400(3) 0.2579(3) 0.0261(6) Uani 1 1 d . . . . .
O5 O 0.4065(4) 0.3559(3) 0.0667(3) 0.0219(6) Uani 1 1 d . . . . .
O6 O 0.6383(5) 0.1555(4) 0.0566(3) 0.0383(8) Uani 1 1 d . . . . .
N3 N 0.0243(5) 0.6860(4) 0.1459(3) 0.0205(7) Uani 1 1 d . . . . .
O7 O 0.0616(4) 0.5816(3) 0.0955(3) 0.0215(6) Uani 1 1 d . . . . .
O8 O 0.1053(4) 0.6380(3) 0.2660(3) 0.0210(6) Uani 1 1 d . . . . .
O9 O -0.0809(5) 0.8197(3) 0.0813(3) 0.0365(8) Uani 1 1 d . . . . .
O10 O -0.0906(4) 0.3855(3) 0.3938(3) 0.0210(6) Uani 1 1 d . . . . .
H1 H -0.153(7) 0.457(6) 0.421(5) 0.028(12) Uiso 1 1 d . . . . .
H2 H -0.177(9) 0.372(6) 0.363(6) 0.046(17) Uiso 1 1 d . . . . .
O11 O 0.1966(5) 0.1000(3) 0.4680(3) 0.0212(6) Uani 1 1 d . . . . .
H3 H 0.140(7) 0.080(5) 0.547(5) 0.016(11) Uiso 1 1 d . . . . .
H4 H 0.261(7) 0.017(5) 0.483(5) 0.017(12) Uiso 1 1 d . . . . .
O12 O 0.0258(5) 0.2634(3) 0.1944(3) 0.0212(6) Uani 1 1 d . . . . .
H5 H 0.034(7) 0.164(6) 0.228(5) 0.023(11) Uiso 1 1 d . . . . .
H6 H 0.006(8) 0.306(6) 0.116(6) 0.036(15) Uiso 1 1 d . . . . .
O13 O 0.5142(4) 0.5024(3) 0.2219(3) 0.0188(6) Uani 1 1 d . . . . .
H7 H 0.544(7) 0.536(6) 0.139(6) 0.031(14) Uiso 1 1 d . . . . .
H8 H 0.493(7) 0.571(6) 0.250(5) 0.030(13) Uiso 1 1 d . . . . .
O14 O 0.0031(6) 0.9537(4) 0.2799(3) 0.0291(7) Uani 1 1 d . . . . .
H9 H 0.112(11) 0.882(8) 0.296(7) 0.07(2) Uiso 1 1 d . . . . .
H10 H -0.062(10) 0.957(7) 0.223(7) 0.055(19) Uiso 1 1 d . . . . .
loop_
_atom_site_aniso_label
_atom_site_aniso_U_11
_atom_site_aniso_U_22
_atom_site_aniso_U_33
_atom_site_aniso_U_23
_atom_site_aniso_U_13
_atom_site_aniso_U_12
Y 0.01217(17) 0.01170(17) 0.01092(17) -0.00389(12) 0.00058(11) -0.00284(11)
N1 0.0195(16) 0.0161(15) 0.0162(16) -0.0067(13) 0.0006(13) -0.0065(13)
O1 0.0200(14) 0.0259(14) 0.0191(14) -0.0122(12) -0.0046(11) 0.0037(11)
O2 0.0200(14) 0.0195(13) 0.0216(14) -0.0100(12) 0.0025(11) -0.0028(11)
O3 0.0304(16) 0.0371(16) 0.0255(16) -0.0176(14) -0.0127(13) -0.0014(13)
N2 0.0213(17) 0.0252(17) 0.0180(17) -0.0119(14) 0.0070(13) -0.0053(14)
O4 0.0293(16) 0.0250(14) 0.0162(14) -0.0078(12) 0.0053(11) 0.0041(12)
O5 0.0275(15) 0.0171(13) 0.0174(14) -0.0056(11) 0.0045(11) -0.0041(11)
O6 0.0421(19) 0.0357(17) 0.0341(18) -0.0195(15) 0.0143(14) 0.0005(14)
N3 0.0230(17) 0.0167(16) 0.0219(18) -0.0088(14) -0.0003(14) -0.0030(13)
O7 0.0321(16) 0.0142(13) 0.0181(14) -0.0070(11) -0.0057(12) -0.0022(11)
O8 0.0221(14) 0.0232(13) 0.0207(14) -0.0116(11) -0.0048(11) -0.0042(11)
O9 0.046(2) 0.0163(15) 0.0381(19) -0.0084(13) -0.0133(15) 0.0093(13)
O10 0.0132(14) 0.0271(15) 0.0313(16) -0.0207(13) 0.0053(12) -0.0053(11)
O11 0.0258(16) 0.0143(15) 0.0169(16) -0.0018(12) 0.0021(12) -0.0030(12)
O12 0.0336(17) 0.0151(15) 0.0137(15) -0.0020(12) -0.0038(12) -0.0103(12)
O13 0.0216(14) 0.0193(14) 0.0156(16) -0.0064(12) 0.0039(11) -0.0082(11)
O14 0.045(2) 0.0186(15) 0.0211(17) -0.0074(13) 0.0000(15) -0.0051(14)
loop_
_atom_type_symbol
_atom_type_description
_atom_type_scat_dispersion_real
_atom_type_scat_dispersion_imag
_atom_type_scat_source
Y Y -2.7962 3.5667 'International Tables Vol C Tables 4.2.6.8 and 6.1.1.4'
N N 0.0061 0.0033 'International Tables Vol C Tables 4.2.6.8 and 6.1.1.4'
O O 0.0106 0.0060 'International Tables Vol C Tables 4.2.6.8 and 6.1.1.4'
H H 0.0000 0.0000 'International Tables Vol C Tables 4.2.6.8 and 6.1.1.4'
loop_
_geom_angle_atom_site_label_1
_geom_angle_atom_site_label_2
_geom_angle_atom_site_label_3
_geom_angle
_geom_angle_site_symmetry_1
_geom_angle_site_symmetry_3
O12 Y O11 73.34(10) . .
O12 Y O10 72.74(10) . .
O11 Y O10 71.52(11) . .
O12 Y O7 72.10(10) . .
O11 Y O7 140.22(9) . .
O10 Y O7 79.90(10) . .
O12 Y O13 138.87(11) . .
O11 Y O13 138.14(9) . .
O10 Y O13 133.44(10) . .
O7 Y O13 81.63(9) . .
O12 Y O4 81.13(10) . .
O11 Y O4 71.83(11) . .
O10 Y O4 139.65(10) . .
O7 Y O4 120.72(9) . .
O13 Y O4 86.05(10) . .
O12 Y O1 142.58(10) . .
O11 Y O1 80.72(10) . .
O10 Y O1 73.72(10) . .
O7 Y O1 117.39(8) . .
O13 Y O1 77.74(10) . .
O4 Y O1 115.94(9) . .
O12 Y O5 72.54(10) . .
O11 Y O5 116.73(10) . .
O10 Y O5 139.49(9) . .
O7 Y O5 70.08(9) . .
O13 Y O5 68.95(10) . .
O4 Y O5 51.51(9) . .
O1 Y O5 144.56(9) . .
O12 Y O8 113.61(9) . .
O11 Y O8 132.88(11) . .
O10 Y O8 67.32(9) . .
O7 Y O8 50.74(8) . .
O13 Y O8 67.86(9) . .
O4 Y O8 152.97(10) . .
O1 Y O8 66.72(8) . .
O5 Y O8 109.36(8) . .
O12 Y O2 136.35(9) . .
O11 Y O2 69.52(9) . .
O10 Y O2 114.64(9) . .
O7 Y O2 149.71(9) . .
O13 Y O2 69.09(9) . .
O4 Y O2 66.24(8) . .
O1 Y O2 49.98(8) . .
O5 Y O2 104.80(8) . .
O8 Y O2 108.29(8) . .
O12 Y N2 75.40(10) . .
O11 Y N2 94.06(11) . .
O10 Y N2 147.63(9) . .
O7 Y N2 95.75(9) . .
O13 Y N2 76.43(10) . .
O4 Y N2 25.40(9) . .
O1 Y N2 133.87(9) . .
O5 Y N2 26.10(8) . .
O8 Y N2 133.06(9) . .
O2 Y N2 85.07(9) . .
O12 Y N3 92.27(9) . .
O11 Y N3 141.95(11) . .
O10 Y N3 70.58(10) . .
O7 Y N3 25.50(8) . .
O13 Y N3 74.48(9) . .
O4 Y N3 141.89(9) . .
O1 Y N3 91.89(8) . .
O5 Y N3 90.62(9) . .
O8 Y N3 25.31(8) . .
O2 Y N3 131.29(8) . .
N2 Y N3 116.64(9) . .
O12 Y N1 146.09(10) . .
O11 Y N1 72.87(9) . .
O10 Y N1 93.90(10) . .
O7 Y N1 137.46(8) . .
O13 Y N1 72.46(9) . .
O4 Y N1 90.99(9) . .
O1 Y N1 25.02(8) . .
O5 Y N1 126.61(9) . .
O8 Y N1 87.86(8) . .
O2 Y N1 24.99(8) . .
N2 Y N1 109.71(9) . .
N3 Y N1 112.95(8) . .
O3 N1 O2 122.7(3) . .
O3 N1 O1 121.7(3) . .
O2 N1 O1 115.6(3) . .
O3 N1 Y 175.7(3) . .
O2 N1 Y 60.99(16) . .
O1 N1 Y 54.64(16) . .
N1 O1 O2 31.95(16) . .
N1 O1 O3 28.41(17) . .
O2 O1 O3 60.35(12) . .
N1 O1 Y 100.3(2) . .
O2 O1 Y 68.45(10) . .
O3 O1 Y 128.71(14) . .
N1 O1 O8 141.9(2) . .
O2 O1 O8 116.69(14) . .
O3 O1 O8 152.47(16) . .
Y O1 O8 58.57(7) . .
N1 O1 O10 126.4(2) . 2_566
O2 O1 O10 156.39(14) . 2_566
O3 O1 O10 98.65(13) . 2_566
Y O1 O10 132.10(11) . 2_566
O8 O1 O10 76.34(10) . 2_566
N1 O1 O10 136.3(2) . .
O2 O1 O10 111.34(13) . .
O3 O1 O10 149.58(16) . .
Y O1 O10 51.61(7) . .
O8 O1 O10 57.84(9) . .
O10 O1 O10 92.23(11) 2_566 .
N1 O1 O13 85.1(2) . .
O2 O1 O13 63.58(11) . .
O3 O1 O13 104.84(14) . .
Y O1 O13 50.51(7) . .
O8 O1 O13 56.87(9) . .
O10 O1 O13 117.31(12) 2_566 .
O10 O1 O13 94.98(10) . .
N1 O1 O11 82.00(18) . .
O2 O1 O11 61.90(11) . .
O3 O1 O11 101.39(13) . .
Y O1 O11 47.89(7) . .
O8 O1 O11 99.78(10) . .
O10 O1 O11 138.44(13) 2_566 .
O10 O1 O11 54.32(9) . .
O13 O1 O11 92.06(10) . .
N1 O2 O1 32.50(16) . .
N1 O2 O3 28.14(16) . .
O1 O2 O3 60.64(12) . .
N1 O2 Y 94.02(18) . .
O1 O2 Y 61.57(9) . .
O3 O2 Y 122.13(13) . .
N1 O2 O4 147.2(2) . .
O1 O2 O4 115.37(13) . .
O3 O2 O4 171.14(16) . .
Y O2 O4 54.08(7) . .
N1 O2 O11 95.1(2) . .
O1 O2 O11 76.08(12) . .
O3 O2 O11 110.92(15) . .
Y O2 O11 50.79(7) . .
O4 O2 O11 60.27(10) . .
N1 O2 O13 95.0(2) . .
O1 O2 O13 74.11(12) . .
O3 O2 O13 112.25(14) . .
Y O2 O13 52.41(7) . .
O4 O2 O13 72.44(10) . .
O11 O2 O13 102.97(11) . .
N1 O2 O11 134.8(2) . 2_656
O1 O2 O11 155.81(16) . 2_656
O3 O2 O11 110.06(13) . 2_656
Y O2 O11 121.35(10) . 2_656
O4 O2 O11 70.19(10) . 2_656
O11 O2 O11 88.27(11) . 2_656
O13 O2 O11 128.19(13) . 2_656
N1 O2 O10 93.58(19) . 1_655
O1 O2 O10 104.20(13) . 1_655
O3 O2 O10 83.26(13) . 1_655
Y O2 O10 113.68(11) . 1_655
O4 O2 O10 105.57(12) . 1_655
O11 O2 O10 162.71(13) . 1_655
O13 O2 O10 61.32(9) . 1_655
O11 O2 O10 96.20(11) 2_656 1_655
N1 O3 O2 29.12(18) . .
N1 O3 O1 29.89(18) . .
O2 O3 O1 59.01(11) . .
N1 O3 O13 123.2(2) . 2_666
O2 O3 O13 146.40(15) . 2_666
O1 O3 O13 96.25(13) . 2_666
N1 O3 O8 133.7(3) . 2_666
O2 O3 O8 121.89(16) . 2_666
O1 O3 O8 132.35(15) . 2_666
O13 O3 O8 56.33(9) 2_666 2_666
N1 O3 O14 114.1(2) . 2_666
O2 O3 O14 85.27(13) . 2_666
O1 O3 O14 143.54(16) . 2_666
O13 O3 O14 112.52(11) 2_666 2_666
O8 O3 O14 59.10(9) 2_666 2_666
O6 N2 O4 122.9(3) . .
O6 N2 O5 121.7(3) . .
O4 N2 O5 115.4(3) . .
O6 N2 Y 178.7(3) . .
O4 N2 Y 56.15(17) . .
O5 N2 Y 59.30(17) . .
N2 O4 O5 32.59(17) . .
N2 O4 O6 27.95(18) . .
O5 O4 O6 60.54(13) . .
N2 O4 Y 98.4(2) . .
O5 O4 Y 65.85(10) . .
O6 O4 Y 126.39(14) . .
N2 O4 O2 132.8(2) . .
O5 O4 O2 110.50(13) . .
O6 O4 O2 141.85(17) . .
Y O4 O2 59.68(8) . .
N2 O4 O11 140.1(2) . .
O5 O4 O11 112.05(14) . .
O6 O4 O11 156.48(17) . .
Y O4 O11 52.33(8) . .
O2 O4 O11 61.01(10) . .
N2 O4 O12 84.4(2) . .
O5 O4 O12 63.06(12) . .
O6 O4 O12 104.21(14) . .
Y O4 O12 47.87(7) . .
O2 O4 O12 102.57(11) . .
O11 O4 O12 56.00(10) . .
N2 O5 O4 31.96(18) . .
N2 O5 O6 28.25(18) . .
O4 O5 O6 60.20(13) . .
N2 O5 Y 94.6(2) . .
O4 O5 Y 62.64(10) . .
O6 O5 Y 122.84(13) . .
N2 O5 O13 110.2(2) . 2_665
O4 O5 O13 142.06(15) . 2_665
O6 O5 O13 81.92(13) . 2_665
Y O5 O13 155.12(12) . 2_665
N2 O5 O13 102.69(19) . .
O4 O5 O13 83.22(12) . .
O6 O5 O13 117.21(14) . .
Y O5 O13 54.00(8) . .
O13 O5 O13 115.27(11) 2_665 .
N2 O5 O7 146.5(2) . .
O4 O5 O7 115.30(14) . .
O6 O5 O7 170.80(16) . .
Y O5 O7 53.45(7) . .
O13 O5 O7 102.50(11) 2_665 .
O13 O5 O7 68.46(9) . .
N2 O5 O12 94.7(2) . .
O4 O5 O12 74.92(13) . .
O6 O5 O12 112.10(14) . .
Y O5 O12 50.85(8) . .
O13 O5 O12 126.34(12) 2_665 .
O13 O5 O12 103.63(12) . .
O7 O5 O12 58.77(10) . .
N2 O5 O5 121.8(2) . 2_665
O4 O5 O5 128.62(17) . 2_665
O6 O5 O5 107.29(17) . 2_665
Y O5 O5 107.13(13) . 2_665
O13 O5 O5 57.88(10) 2_665 2_665
O13 O5 O5 57.39(10) . 2_665
O7 O5 O5 81.82(12) . 2_665
O12 O5 O5 140.59(15) . 2_665
N2 O6 O4 29.18(19) . .
N2 O6 O5 30.08(19) . .
O4 O6 O5 59.26(12) . .
N2 O6 O14 99.4(2) . 1_645
O4 O6 O14 75.11(13) . 1_645
O5 O6 O14 123.04(15) . 1_645
N2 O6 O9 137.8(3) . 2_665
O4 O6 O9 135.08(16) . 2_665
O5 O6 O9 124.69(16) . 2_665
O14 O6 O9 67.68(10) 1_645 2_665
N2 O6 O9 141.3(3) . 1_645
O4 O6 O9 112.64(15) . 1_645
O5 O6 O9 168.95(17) . 1_645
O14 O6 O9 57.04(9) 1_645 1_645
O9 O6 O9 66.24(11) 2_665 1_645
O9 N3 O8 123.5(3) . .
O9 N3 O7 121.7(3) . .
O8 N3 O7 114.8(3) . .
O9 N3 Y 173.8(2) . .
O8 N3 Y 60.95(16) . .
O7 N3 Y 54.07(16) . .
N3 O7 O8 32.21(16) . .
N3 O7 O9 28.20(16) . .
O8 O7 O9 60.41(12) . .
N3 O7 Y 100.44(19) . .
O8 O7 Y 68.38(9) . .
O9 O7 Y 128.48(14) . .
N3 O7 O12 109.2(2) . 2_565
O8 O7 O12 139.46(14) . 2_565
O9 O7 O12 82.10(13) . 2_565
Y O7 O12 148.33(12) . 2_565
N3 O7 O12 135.6(2) . .
O8 O7 O12 111.80(13) . .
O9 O7 O12 146.72(18) . .
Y O7 O12 52.50(7) . .
O12 O7 O12 108.05(11) 2_565 .
N3 O7 O5 138.2(2) . .
O8 O7 O5 112.27(13) . .
O9 O7 O5 151.59(17) . .
Y O7 O5 56.47(8) . .
O12 O7 O5 93.00(12) 2_565 .
O12 O7 O5 61.27(10) . .
N3 O7 O10 79.2(2) . .
O8 O7 O10 60.39(11) . .
O9 O7 O10 97.55(15) . .
Y O7 O10 49.28(7) . .
O12 O7 O10 146.77(13) 2_565 .
O12 O7 O10 56.43(10) . .
O5 O7 O10 101.51(10) . .
N3 O7 O13 83.12(19) . .
O8 O7 O13 59.85(11) . .
O9 O7 O13 104.46(13) . .
Y O7 O13 49.20(7) . .
O12 O7 O13 122.81(13) 2_565 .
O12 O7 O13 96.38(10) . .
O5 O7 O13 55.18(9) . .
O10 O7 O13 89.65(10) . .
N3 O8 O7 33.00(16) . .
N3 O8 O9 27.70(17) . .
O7 O8 O9 60.69(12) . .
N3 O8 Y 93.74(18) . .
O7 O8 Y 60.88(9) . .
O9 O8 Y 121.31(12) . .
N3 O8 O10 94.1(2) . .
O7 O8 O10 76.81(12) . .
O9 O8 O10 108.05(14) . .
Y O8 O10 52.71(8) . .
N3 O8 O1 147.9(2) . .
O7 O8 O1 115.52(13) . .
O9 O8 O1 171.41(16) . .
Y O8 O1 54.70(7) . .
O10 O8 O1 63.38(10) . .
N3 O8 O13 100.8(2) . .
O7 O8 O13 78.53(13) . .
O9 O8 O13 117.93(16) . .
Y O8 O13 53.44(8) . .
O10 O8 O13 105.18(12) . .
O1 O8 O13 66.86(10) . .
N3 O8 O3 127.4(2) . 2_666
O7 O8 O3 131.53(15) . 2_666
O9 O8 O3 113.95(14) . 2_666
Y O8 O3 107.89(10) . 2_666
O10 O8 O3 137.21(12) . 2_666
O1 O8 O3 74.47(10) . 2_666
O13 O8 O3 61.69(10) . 2_666
N3 O8 O14 97.3(2) . .
O7 O8 O14 129.83(14) . .
O9 O8 O14 69.84(12) . .
Y O8 O14 168.59(12) . .
O10 O8 O14 129.07(14) . .
O1 O8 O14 114.62(11) . .
O13 O8 O14 120.90(13) . .
O3 O8 O14 62.67(10) 2_666 .
N3 O9 O8 28.83(17) . .
N3 O9 O7 30.07(17) . .
O8 O9 O7 58.90(11) . .
N3 O9 O14 96.3(2) . .
O8 O9 O14 67.74(12) . .
O7 O9 O14 126.00(14) . .
N3 O9 O6 76.7(2) . 2_665
O8 O9 O6 82.41(13) . 2_665
O7 O9 O6 74.28(13) . 2_665
O14 O9 O6 91.87(12) . 2_665
N3 O9 O6 153.5(3) . 1_465
O8 O9 O6 125.49(15) . 1_465
O7 O9 O6 170.55(17) . 1_465
O14 O9 O6 60.40(10) . 1_465
O6 O9 O6 113.76(11) 2_665 1_465
Y O10 O8 59.97(9) . .
Y O10 O11 53.77(9) . .
O8 O10 O11 110.16(13) . .
Y O10 O12 53.07(8) . .
O8 O10 O12 95.95(12) . .
O11 O10 O12 60.50(11) . .
Y O10 O1 130.55(13) . 2_566
O8 O10 O1 73.76(11) . 2_566
O11 O10 O1 143.67(14) . 2_566
O12 O10 O1 155.57(14) . 2_566
Y O10 O1 54.67(8) . .
O8 O10 O1 58.78(9) . .
O11 O10 O1 66.79(10) . .
O12 O10 O1 106.06(12) . .
O1 O10 O1 87.77(11) 2_566 .
Y O10 O13 122.42(13) . 1_455
O8 O10 O13 103.03(12) . 1_455
O11 O10 O13 128.63(13) . 1_455
O12 O10 O13 78.39(11) . 1_455
O1 O10 O13 82.42(10) 2_566 1_455
O1 O10 O13 161.32(13) . 1_455
Y O10 O2 136.31(12) . 1_455
O8 O10 O2 157.66(13) . 1_455
O11 O10 O2 91.21(11) . 1_455
O12 O10 O2 88.84(11) . 1_455
O1 O10 O2 93.08(11) 2_566 1_455
O1 O10 O2 140.33(13) . 1_455
O13 O10 O2 56.52(9) 1_455 1_455
Y O10 O7 50.82(8) . .
O8 O10 O7 42.80(8) . .
O11 O10 O7 100.28(12) . .
O12 O10 O7 56.78(10) . .
O1 O10 O7 104.74(11) 2_566 .
O1 O10 O7 88.59(11) . .
O13 O10 O7 78.67(10) 1_455 .
O2 O10 O7 129.00(12) 1_455 .
Y O10 H1 130(3) . .
O8 O10 H1 73(3) . .
O11 O10 H1 145(3) . .
O12 O10 H1 154(3) . .
O1 O10 H1 1(3) 2_566 .
O1 O10 H1 88(3) . .
O13 O10 H1 82(3) 1_455 .
O2 O10 H1 93(3) 1_455 .
O7 O10 H1 104(3) . .
Y O10 H2 117(4) . .
O8 O10 H2 126(4) . .
O11 O10 H2 102(4) . .
O12 O10 H2 65(4) . .
O1 O10 H2 103(4) 2_566 .
O1 O10 H2 169(4) . .
O13 O10 H2 28(4) 1_455 .
O2 O10 H2 38(4) 1_455 .
O7 O10 H2 91(4) . .
H1 O10 H2 103(5) . .
Y O11 O14 125.75(14) . 2_566
Y O11 O10 54.71(9) . .
O14 O11 O10 79.25(13) 2_566 .
Y O11 O12 53.23(8) . .
O14 O11 O12 128.36(15) 2_566 .
O10 O11 O12 60.41(10) . .
Y O11 O4 55.84(9) . .
O14 O11 O4 163.12(14) 2_566 .
O10 O11 O4 108.72(12) . .
O12 O11 O4 67.46(11) . .
Y O11 O2 59.69(8) . .
O14 O11 O2 106.23(13) 2_566 .
O10 O11 O2 97.30(12) . .
O12 O11 O2 109.44(13) . .
O4 O11 O2 58.72(10) . .
Y O11 O2 128.03(14) . 2_656
O14 O11 O2 102.49(12) 2_566 2_656
O10 O11 O2 169.96(13) . 2_656
O12 O11 O2 112.35(13) . 2_656
O4 O11 O2 72.35(11) . 2_656
O2 O11 O2 91.73(11) . 2_656
Y O11 O1 51.39(7) . .
O14 O11 O1 82.28(12) 2_566 .
O10 O11 O1 58.89(10) . .
O12 O11 O1 100.55(11) . .
O4 O11 O1 89.19(11) . .
O2 O11 O1 42.02(8) . .
O2 O11 O1 131.03(12) 2_656 .
Y O11 O4 126.39(12) . 2_656
O14 O11 O4 66.96(11) 2_566 2_656
O10 O11 O4 135.09(14) . 2_656
O12 O11 O4 163.40(15) . 2_656
O4 O11 O4 98.20(11) . 2_656
O2 O11 O4 66.75(9) . 2_656
O2 O11 O4 53.10(8) 2_656 2_656
O1 O11 O4 87.07(9) . 2_656
Y O11 H3 128(3) . .
O14 O11 H3 3(3) 2_566 .
O10 O11 H3 82(3) . .
O12 O11 H3 131(3) . .
O4 O11 H3 161(3) . .
O2 O11 H3 105(3) . .
O2 O11 H3 100(3) 2_656 .
O1 O11 H3 83(3) . .
O4 O11 H3 64(3) 2_656 .
Y O11 H4 129(4) . .
O14 O11 H4 101(3) 2_566 .
O10 O11 H4 170(3) . .
O12 O11 H4 113(3) . .
O4 O11 H4 74(4) . .
O2 O11 H4 93(3) . .
O2 O11 H4 1(4) 2_656 .
O1 O11 H4 132(3) . .
O4 O11 H4 53(3) 2_656 .
H3 O11 H4 99(4) . .
Y O12 O14 125.12(14) . 1_545
Y O12 O7 120.76(13) . 2_565
O14 O12 O7 106.25(12) 1_545 2_565
Y O12 O10 54.19(8) . .
O14 O12 O10 115.86(14) 1_545 .
O7 O12 O10 127.70(13) 2_565 .
Y O12 O11 53.43(8) . .
O14 O12 O11 74.90(12) 1_545 .
O7 O12 O11 168.50(15) 2_565 .
O10 O12 O11 59.09(11) . .
Y O12 O7 55.40(8) . .
O14 O12 O7 177.23(16) 1_545 .
O7 O12 O7 71.95(11) 2_565 .
O10 O12 O7 66.79(10) . .
O11 O12 O7 106.44(11) . .
Y O12 O5 56.61(8) . .
O14 O12 O5 117.73(14) 1_545 .
O7 O12 O5 75.50(11) 2_565 .
O10 O12 O5 108.02(11) . .
O11 O12 O5 93.74(11) . .
O7 O12 O5 59.96(10) . .
Y O12 O4 51.00(7) . .
O14 O12 O4 87.45(13) 1_545 .
O7 O12 O4 111.96(13) 2_565 .
O10 O12 O4 99.87(11) . .
O11 O12 O4 56.54(10) . .
O7 O12 O4 91.29(11) . .
O5 O12 O4 42.01(8) . .
Y O12 O9 131.99(13) . 2_565
O14 O12 O9 70.54(11) 1_545 2_565
O7 O12 O9 41.08(8) 2_565 2_565
O10 O12 O9 167.82(13) . 2_565
O11 O12 O9 132.89(13) . 2_565
O7 O12 O9 107.02(12) . 2_565
O5 O12 O9 75.71(11) . 2_565
O4 O12 O9 90.57(11) . 2_565
Y O12 H5 117(3) . .
O14 O12 H5 8(3) 1_545 .
O7 O12 H5 112(3) 2_565 .
O10 O12 H5 113(3) . .
O11 O12 H5 68(3) . .
O7 O12 H5 171(3) . .
O5 O12 H5 113(3) . .
O4 O12 H5 80(3) . .
O9 O12 H5 75(3) 2_565 .
Y O12 H6 118(4) . .
O14 O12 H6 108(4) 1_545 .
O7 O12 H6 2(4) 2_565 .
O10 O12 H6 128(4) . .
O11 O12 H6 166(4) . .
O7 O12 H6 70(4) . .
O5 O12 H6 73(4) . .
O4 O12 H6 110(4) . .
O9 O12 H6 42(4) 2_565 .
H5 O12 H6 114(5) . .
Y O13 O5 116.65(12) . 2_665
Y O13 O8 58.70(8) . .
O5 O13 O8 108.33(12) 2_665 .
Y O13 O5 57.06(8) . .
O5 O13 O5 64.73(11) 2_665 .
O8 O13 O5 96.01(11) . .
Y O13 O2 58.50(8) . .
O5 O13 O2 147.18(14) 2_665 .
O8 O13 O2 96.09(12) . .
O5 O13 O2 91.76(11) . .
Y O13 O3 112.64(13) . 2_666
O5 O13 O3 109.57(12) 2_665 2_666
O8 O13 O3 61.97(10) . 2_666
O5 O13 O3 155.32(12) . 2_666
O2 O13 O3 101.08(12) . 2_666
Y O13 O10 120.61(12) . 1_655
O5 O13 O10 111.15(12) 2_665 1_655
O8 O13 O10 132.41(14) . 1_655
O5 O13 O10 124.35(12) . 1_655
O2 O13 O10 62.16(9) . 1_655
O3 O13 O10 80.32(10) 2_666 1_655
Y O13 O1 51.74(7) . .
O5 O13 O1 163.33(12) 2_665 .
O8 O13 O1 56.27(9) . .
O5 O13 O1 107.89(11) . .
O2 O13 O1 42.31(8) . .
O3 O13 O1 70.45(10) 2_666 .
O10 O13 O1 85.44(10) 1_655 .
Y O13 O7 49.17(7) . .
O5 O13 O7 79.45(10) 2_665 .
O8 O13 O7 41.63(8) . .
O5 O13 O7 56.36(8) . .
O2 O13 O7 107.31(11) . .
O3 O13 O7 99.41(11) 2_666 .
O10 O13 O7 168.94(13) 1_655 .
O1 O13 O7 84.08(10) . .
Y O13 O6 110.87(11) . 2_665
O5 O13 O6 41.17(8) 2_665 2_665
O8 O13 O6 71.74(10) . 2_665
O5 O13 O6 86.72(10) . 2_665
O2 O13 O6 167.46(13) . 2_665
O3 O13 O6 76.17(10) 2_666 2_665
O10 O13 O6 128.31(12) 1_655 2_665
O1 O13 O6 126.75(12) . 2_665
O7 O13 O6 61.70(9) . 2_665
Y O13 H7 116(3) . .
O5 O13 H7 5(3) 2_665 .
O8 O13 H7 113(3) . .
O5 O13 H7 62(3) . .
O2 O13 H7 142(3) . .
O3 O13 H7 114(3) 2_666 .
O10 O13 H7 109(3) 1_655 .
O1 O13 H7 166(3) . .
O7 O13 H7 82(3) . .
O6 O13 H7 46(3) 2_665 .
Y O13 H8 112(4) . .
O5 O13 H8 108(3) 2_665 .
O8 O13 H8 60(3) . .
O5 O13 H8 153(3) . .
O2 O13 H8 103(3) . .
O3 O13 H8 3(3) 2_666 .
O10 O13 H8 83(3) 1_655 .
O1 O13 H8 71(4) . .
O7 O13 H8 97(3) . .
O6 O13 H8 74(3) 2_665 .
H7 O13 H8 112(5) . .
O12 O14 O11 99.47(13) 1_565 2_566
O12 O14 O8 154.60(16) 1_565 .
O11 O14 O8 105.49(13) 2_566 .
O12 O14 O9 123.91(14) 1_565 .
O11 O14 O9 123.59(15) 2_566 .
O8 O14 O9 42.42(8) . .
O12 O14 O3 108.65(14) 1_565 2_666
O11 O14 O3 109.98(14) 2_566 2_666
O8 O14 O3 58.23(9) . 2_666
O9 O14 O3 89.95(11) . 2_666
O12 O14 O6 75.27(11) 1_565 1_465
O11 O14 O6 102.59(15) 2_566 1_465
O8 O14 O6 103.35(12) . 1_465
O9 O14 O6 62.56(10) . 1_465
O3 O14 O6 145.73(13) 2_666 1_465
O12 O14 H9 120(4) 1_565 .
O11 O14 H9 108(5) 2_566 .
O8 O14 H9 47(4) . .
O9 O14 H9 82(4) . .
O3 O14 H9 12(4) 2_666 .
O6 O14 H9 142(4) 1_465 .
O12 O14 H10 104(4) 1_565 .
O11 O14 H10 115(5) 2_566 .
O8 O14 H10 69(4) . .
O9 O14 H10 29(4) . .
O3 O14 H10 118(5) 2_666 .
O6 O14 H10 34(4) 1_465 .
H9 O14 H10 110(6) . .
loop_
_geom_bond_atom_site_label_1
_geom_bond_atom_site_label_2
_geom_bond_distance
_geom_bond_site_symmetry_2
Y O12 2.336(3) .
Y O11 2.342(3) .
Y O10 2.370(3) .
Y O7 2.424(2) .
Y O13 2.425(3) .
Y O4 2.448(3) .
Y O1 2.467(2) .
Y O5 2.515(3) .
Y O8 2.579(3) .
Y O2 2.609(3) .
Y N2 2.916(3) .
Y N3 2.944(3) .
Y N1 2.976(3) .
N1 O3 1.221(4) .
N1 O2 1.260(4) .
N1 O1 1.280(4) .
O1 O2 2.149(4) .
O1 O3 2.185(3) .
O1 O8 2.777(3) .
O1 O10 2.855(4) 2_566
O1 O10 2.903(4) .
O1 O13 3.070(4) .
O1 O11 3.116(4) .
O2 O3 2.178(4) .
O2 O4 2.767(4) .
O2 O11 2.832(4) .
O2 O13 2.859(4) .
O2 O11 2.892(4) 2_656
O2 O10 3.031(4) 1_655
O3 O13 2.958(4) 2_666
O3 O8 2.966(4) 2_666
O3 O14 3.099(5) 2_666
N2 O6 1.216(4) .
N2 O4 1.265(4) .
N2 O5 1.287(4) .
O4 O5 2.158(4) .
O4 O6 2.178(4) .
O4 O11 2.811(4) .
O4 O12 3.113(4) .
O5 O6 2.186(4) .
O5 O13 2.782(4) 2_665
O5 O13 2.797(4) .
O5 O7 2.837(4) .
O5 O12 2.874(4) .
O5 O5 2.987(5) 2_665
O6 O14 3.146(5) 1_645
O6 O9 3.150(5) 2_665
O6 O9 3.212(4) 1_645
N3 O9 1.216(4) .
N3 O8 1.261(4) .
N3 O7 1.289(4) .
O7 O8 2.148(3) .
O7 O9 2.188(4) .
O7 O12 2.787(4) 2_565
O7 O12 2.802(4) .
O7 O10 3.079(4) .
O7 O13 3.169(4) .
O8 O9 2.182(4) .
O8 O10 2.749(4) .
O8 O13 2.796(4) .
O8 O3 2.966(4) 2_666
O8 O14 2.993(4) .
O9 O14 3.036(4) .
O9 O6 3.150(5) 2_665
O9 O6 3.212(4) 1_465
O10 O11 2.754(4) .
O10 O12 2.791(4) .
O10 O1 2.855(4) 2_566
O10 O13 3.007(4) 1_455
O10 O2 3.031(4) 1_455
O10 H1 0.86(5) .
O10 H2 0.74(6) .
O11 O14 2.740(5) 2_566
O11 O12 2.794(4) .
O11 O2 2.892(4) 2_656
O11 O4 3.255(4) 2_656
O11 H3 0.83(5) .
O11 H4 0.76(5) .
O12 O14 2.719(4) 1_545
O12 O7 2.787(4) 2_565
O12 O9 3.298(4) 2_565
O12 H5 0.84(5) .
O12 H6 0.75(5) .
O13 O5 2.782(4) 2_665
O13 O3 2.958(4) 2_666
O13 O10 3.007(4) 1_655
O13 O6 3.287(4) 2_665
O13 H7 0.81(5) .
O13 H8 0.81(5) .
O14 O12 2.719(4) 1_565
O14 O11 2.740(5) 2_566
O14 O3 3.099(5) 2_666
O14 O6 3.146(5) 1_465
O14 H9 0.84(7) .
O14 H10 0.76(6) .
loop_
_geom_hbond_atom_site_label_D
_geom_hbond_atom_site_label_H
_geom_hbond_atom_site_label_A
_geom_hbond_distance_DH
_geom_hbond_distance_HA
_geom_hbond_distance_DA
_geom_hbond_angle_DHA
_geom_hbond_site_symmetry_A
O10 H1 O1 0.86(5) 2.00(5) 2.855(4) 178(4) 2_566
O10 H2 O13 0.74(6) 2.38(5) 3.007(4) 144(5) 1_455
O10 H2 O2 0.74(6) 2.49(6) 3.031(4) 131(5) 1_455
O11 H3 O14 0.83(5) 1.91(5) 2.740(5) 176(4) 2_566
O11 H4 O2 0.76(5) 2.14(5) 2.892(4) 178(5) 2_656
O12 H5 O14 0.84(5) 1.89(5) 2.719(4) 168(4) 1_545
O12 H6 O7 0.75(5) 2.04(5) 2.787(4) 177(5) 2_565
O13 H7 O5 0.81(5) 1.98(5) 2.782(4) 173(5) 2_665
O13 H8 O3 0.81(5) 2.15(5) 2.958(4) 177(4) 2_666
O14 H9 O3 0.84(7) 2.29(7) 3.099(5) 164(6) 2_666
O14 H10 O9 0.76(6) 2.40(6) 3.036(4) 142(5) .
O14 H10 O6 0.76(6) 2.55(6) 3.146(5) 136(5) 1_465
