#------------------------------------------------------------------------------
#$Date: 2022-09-26 11:16:59 +0300 (Mon, 26 Sep 2022) $
#$Revision: 278165 $
#$URL: file:///home/coder/svn-repositories/cod/cif/8/10/58/8105860.cif $
#------------------------------------------------------------------------------
#
# This file is available in the Crystallography Open Database (COD),
# http://www.crystallography.net/
#
# All data on this site have been placed in the public domain by the
# contributors.
#
data_8105860
loop_
_publ_author_name
'Wang, Bo'
'Zhou, Yu'
'Wang, Yu'
'Chen, Gao-Hui'
'Lian, Qi-Xin'
'Wang, Hai-Dong'
_publ_section_title
;
 Crystal structure of poly[(\m2-1,3-bis(imidazol-1-ylmethyl)benzene-\k2
 N:N&#x2032;)(nitrato-\k1 O)cadmium(II)] --- water (2/1), C28H32CdN10O7
;
_journal_issue                   4
_journal_name_full
'Zeitschrift f\"ur Kristallographie - New Crystal Structures'
_journal_page_first              817
_journal_page_last               818
_journal_paper_doi               10.1515/ncrs-2019-0126
_journal_volume                  234
_journal_year                    2019
_chemical_formula_moiety         'C28 H28 Cd N10 O6, 2(H2 O0.5)'
_chemical_formula_sum            'C28 H32 Cd N10 O7'
_chemical_formula_weight         733.05
_space_group_crystal_system      triclinic
_space_group_IT_number           2
_space_group_name_Hall           '-P 1'
_space_group_name_H-M_alt        'P -1'
_atom_sites_solution_hydrogens   mixed
_cell_angle_alpha                94.069(7)
_cell_angle_beta                 104.912(7)
_cell_angle_gamma                97.695(7)
_cell_formula_units_Z            1
_cell_length_a                   8.2649(5)
_cell_length_b                   9.7841(6)
_cell_length_c                   10.0808(6)
_cell_measurement_temperature    293(2)
_cell_volume                     775.89(9)
_computing_molecular_graphics    'Olex2 (Dolomanov et al., 2009)'
_computing_publication_material  'Olex2 (Dolomanov et al., 2009)'
_computing_structure_refinement  'ShelXL (Sheldrick, 2015)'
_diffrn_ambient_temperature      293(2)
_diffrn_measured_fraction_theta_full 0.998
_diffrn_measured_fraction_theta_max 0.998
_diffrn_radiation_type           MoK\a
_diffrn_radiation_wavelength     0.71073
_diffrn_reflns_av_R_equivalents  0.0228
_diffrn_reflns_av_unetI/netI     0.0213
_diffrn_reflns_Laue_measured_fraction_full 0.998
_diffrn_reflns_Laue_measured_fraction_max 0.998
_diffrn_reflns_limit_h_max       10
_diffrn_reflns_limit_h_min       -10
_diffrn_reflns_limit_k_max       12
_diffrn_reflns_limit_k_min       -12
_diffrn_reflns_limit_l_max       13
_diffrn_reflns_limit_l_min       -13
_diffrn_reflns_number            12375
_diffrn_reflns_point_group_measured_fraction_full 0.998
_diffrn_reflns_point_group_measured_fraction_max 0.998
_diffrn_reflns_theta_full        25.242
_diffrn_reflns_theta_max         27.482
_diffrn_reflns_theta_min         3.069
_exptl_absorpt_coefficient_mu    0.766
_exptl_crystal_density_diffrn    1.569
_exptl_crystal_F_000             374
_exptl_crystal_size_max          0.41
_exptl_crystal_size_mid          0.23
_exptl_crystal_size_min          0.12
_refine_diff_density_max         0.783
_refine_diff_density_min         -0.802
_refine_diff_density_rms         0.077
_refine_ls_extinction_coef       .
_refine_ls_extinction_method     none
_refine_ls_goodness_of_fit_ref   1.078
_refine_ls_hydrogen_treatment    constr
_refine_ls_matrix_type           full
_refine_ls_number_parameters     242
_refine_ls_number_reflns         3552
_refine_ls_number_restraints     657
_refine_ls_restrained_S_all      1.163
_refine_ls_R_factor_all          0.0458
_refine_ls_R_factor_gt           0.0432
_refine_ls_shift/su_max          0.001
_refine_ls_shift/su_mean         0.000
_refine_ls_structure_factor_coef Fsqd
_refine_ls_weighting_details
'w=1/[\s^2^(Fo^2^)+(0.0735P)^2^+0.3098P] where P=(Fo^2^+2Fc^2^)/3'
_refine_ls_weighting_scheme      calc
_refine_ls_wR_factor_gt          0.1122
_refine_ls_wR_factor_ref         0.1140
_reflns_Friedel_coverage         0.000
_reflns_Friedel_fraction_full    .
_reflns_Friedel_fraction_max     .
_reflns_number_gt                3382
_reflns_number_total             3552
_reflns_threshold_expression     'I > 2\s(I)'
_iucr_refine_instructions_details
;
TITL shelx in P1 #1 New: P-1
    shelx.res
    created by SHELXL-2018/3 at 16:51:48 on 19-Feb-2019
CELL 0.71073 8.2649 9.7841 10.0808 94.069 104.912 97.695
ZERR 1 0.0005 0.0006 0.0006 0.007 0.007 0.007
LATT 1
SFAC  C 2.310 20.844 1.02 10.208 1.589 0.569 0.865 51.651 0.216 0.003 0.002 =
 11.5 0.68 12.01
SFAC  H 0.493 10.511 0.323 26.126 0.14 3.142 0.041 57.8 0.003 0 0 0.624 =
 0.35 1.008
SFAC  Cd 19.221 0.595 17.644 6.909 4.461 24.701 1.603 87.483 5.069 -0.808 =
 1.202 5180 1.69 112.41
SFAC  N 12.213 0.006 3.132 9.893 2.013 28.998 1.166 0.583 -11.529 0.006 =
 0.003 19.6 0.68 14.01
SFAC  O 3.049 13.277 2.287 5.701 1.546 0.324 0.867 32.909 0.251 0.011 0.006 =
 32.5 0.68 16
UNIT 28 32 1 10 7

DFIX 2.2 O2' O3'
DFIX 1.15 N7 O2'
DFIX 1.15 N7 O3'
DFIX 1.15 N7 O1'
DFIX 2.2 O2' O1'
DFIX 2.2 O3' O1'
DFIX 0.84 0.005 O4 H4c O4 H4d
DFIX 1.36 0.01 H4d H4c
DFIX 1.19 0.01 O1' N7 O2 N7 O3' N7 O1 N7 O2' N7 O3 N7
SIMU 0.02 0.04 3.8

L.S. 5
PLAN  20
SIZE 0.41 0.23 0.12
FREE O1' H4c
BOND $H
fmap 2
acta
REM <olex2.extras>
REM <HklSrc "%.\\shelx.hkl">
REM </olex2.extras>

WGHT    0.073500    0.309800
FVAR       0.53723   0.81782
CD1   3    0.000000    0.000000    0.000000    10.50000    0.06280    0.03602 =
         0.04666    0.00409    0.02055    0.00235
PART 1
O1    5   -0.277217    0.049837    0.227856    21.00000    0.13466    0.17346 =
         0.10098    0.05677    0.03574    0.04581
PART 0
PART 2
O1'   5   -0.322603    0.190836    0.015134   -21.00000    0.07248    0.12312 =
         0.13217   -0.00601    0.03307    0.02844
PART 0
AFIX   3
H4C   2   -0.400643    0.182846   -0.102156    11.00000   -1.20000
H4D   2   -0.562983    0.107196   -0.196696    11.00000   -1.20000
AFIX   0
PART 1
O2    5   -0.250366    0.074490    0.031797    21.00000    0.09572    0.14135 =
         0.08774    0.00699    0.04872    0.05892
PART 0
PART 2
O2'   5   -0.360251    0.153650    0.211394   -21.00000    0.12505    0.13939 =
         0.14840   -0.02146    0.03986    0.05934
PART 0
PART 1
O3    5   -0.367230    0.219914    0.131653    21.00000    0.08489    0.08165 =
         0.10612   -0.01144    0.02654    0.03557
PART 0
PART 2
O3'   5   -0.240564    0.019582    0.097627   -21.00000    0.09772    0.09443 =
         0.09864    0.00817    0.03011    0.02356

PART 0
O4    5   -0.476208    0.171756   -0.181645    10.50000    0.15313    0.15691 =
         0.12227    0.03632    0.05249    0.04851

N1    4    0.370745    0.125896    0.405785    11.00000    0.06887    0.03823 =
         0.05323   -0.00231    0.01563    0.01034
N3    4    0.156625    0.043775    0.226975    11.00000    0.07134    0.04945 =
         0.04812   -0.00015    0.02292   -0.00285
N4    4    0.085629    0.224010   -0.047858    11.00000    0.06229    0.04298 =
         0.05455    0.01092    0.01359    0.00584
N6    4    0.051107    0.420126   -0.136576    11.00000    0.06639    0.04272 =
         0.04371    0.00760    0.01382    0.01127
N7    4   -0.295951    0.122016    0.123456    11.00000    0.06126    0.08684 =
         0.10496   -0.01979    0.03270    0.00014
C13   1   -0.011905    0.508738   -0.364096    11.00000    0.05907    0.04082 =
         0.04392    0.00562    0.00876    0.01711
C1    1   -0.010824    0.382117   -0.434385    11.00000    0.08489    0.03594 =
         0.05069    0.01069    0.01529    0.01730
AFIX  43
H1    2   -0.017826    0.301944   -0.390476    11.00000   -1.20000
AFIX   0
C14   1   -0.025361    0.298859   -0.112740    11.00000    0.06022    0.04880 =
         0.04856    0.00477    0.01200    0.00758
AFIX  43
H14   2   -0.142154    0.270627   -0.138585    11.00000   -1.20000
AFIX   0
C2    1    0.110778    0.019058    0.344533    11.00000    0.07013    0.04686 =
         0.06111    0.01022    0.03221    0.01141
AFIX  43
H2    2    0.005654   -0.026257    0.347579    11.00000   -1.20000
AFIX   0
C3    1   -0.000528    0.626397   -0.431158    11.00000    0.08048    0.03568 =
         0.04962    0.00290    0.01090    0.01881
AFIX  43
H3    2   -0.000513    0.712281   -0.385265    11.00000   -1.20000
AFIX   0
C4    1   -0.031145    0.520909   -0.219165    11.00000    0.08906    0.05224 =
         0.05010    0.01226    0.02000    0.03096
AFIX  23
H4A   2    0.017762    0.613801   -0.174699    11.00000   -1.20000
H4B   2   -0.150796    0.506956   -0.223130    11.00000   -1.20000
AFIX   0
C5    1    0.238674    0.302322   -0.031441    11.00000    0.05775    0.06030 =
         0.07541    0.02463    0.01087    0.00690
AFIX  43
H5    2    0.342062    0.276167    0.011061    11.00000   -1.20000
AFIX   0
C6    1    0.220759    0.423692   -0.085229    11.00000    0.06484    0.05704 =
         0.06859    0.01978    0.01070   -0.00189
AFIX  43
H6    2    0.306675    0.494913   -0.086801    11.00000   -1.20000
AFIX   0
C7    1    0.315549    0.107401    0.269936    11.00000    0.07411    0.05639 =
         0.05389   -0.00149    0.02593   -0.00689
AFIX  43
H7    2    0.380678    0.135750    0.211182    11.00000   -1.20000
AFIX   0
C8    1    0.239530    0.069694    0.454939    11.00000    0.08235    0.05698 =
         0.04814    0.01042    0.02525    0.02246
AFIX  43
H8    2    0.239989    0.067265    0.547091    11.00000   -1.20000
AFIX   0
C9    1    0.533190    0.208792    0.484708    11.00000    0.06761    0.05123 =
         0.06940   -0.00731    0.00560    0.01989
AFIX  23
H9A   2    0.620592    0.193329    0.439533    11.00000   -1.20000
H9B   2    0.565688    0.179883    0.576666    11.00000   -1.20000
AFIX   0
C10   1    0.518560    0.360823    0.494932    11.00000    0.04597    0.04573 =
         0.06448   -0.01170    0.00780    0.00981
C11   1    0.471809    0.422771    0.603257    11.00000    0.07242    0.05287 =
         0.06347   -0.00813    0.01960    0.00844
AFIX  43
H11   2    0.453137    0.371399    0.673567    11.00000   -1.20000
AFIX   0
C12   1    0.547617    0.437978    0.392066    11.00000    0.07002    0.05512 =
         0.06466   -0.01196    0.02335    0.01249
AFIX  43
H12   2    0.580364    0.396922    0.319125    11.00000   -1.20000
AFIX   0
HKLF 4




REM  shelx in P1 #1 New: P-1
REM wR2 = 0.1140, GooF = S = 1.078, Restrained GooF = 1.163 for all data
REM R1 = 0.0432 for 3382 Fo > 4sig(Fo) and 0.0458 for all 3552 data
REM 242 parameters refined using 657 restraints

END  
     
WGHT      0.0735      0.3098 

REM Highest difference peak  0.783,  deepest hole -0.802,  1-sigma level  0.077
Q1    1  -0.1783  0.1484  0.0793  11.00000  0.05    0.65
Q2    1  -0.3376  0.1544  0.0380  11.00000  0.05    0.62
Q3    1   0.0844 -0.0433 -0.0090  11.00000  0.05    0.51
Q4    1  -0.4434  0.2381 -0.1722  11.00000  0.05    0.40
Q5    1   0.0030 -0.0591  0.0440  11.00000  0.05    0.37
Q6    1  -0.2831  0.0315  0.0431  11.00000  0.05    0.36
Q7    1   0.0791  0.0411  0.0636  11.00000  0.05    0.35
Q8    1  -0.3679  0.2551  0.0300  11.00000  0.05    0.30
Q9    1   0.0249  0.2579 -0.0751  11.00000  0.05    0.30
Q10   1  -0.2604  0.2427  0.1044  11.00000  0.05    0.30
Q11   1  -0.0064  0.5579 -0.4032  11.00000  0.05    0.28
Q12   1   0.3147  0.1405  0.4035  11.00000  0.05    0.28
Q13   1  -0.4192  0.2554  0.1250  11.00000  0.05    0.26
Q14   1  -0.4394  0.1419  0.0924  11.00000  0.05    0.26
Q15   1  -0.0128  0.3831 -0.5020  11.00000  0.05    0.26
Q16   1   0.5370  0.5026  0.3968  11.00000  0.05    0.26
Q17   1   0.5417  0.4036  0.4545  11.00000  0.05    0.26
Q18   1   0.0669  0.1889 -0.0201  11.00000  0.05    0.25
Q19   1   0.4222  0.1620  0.4457  11.00000  0.05    0.24
Q20   1   0.0522  0.0087  0.3315  11.00000  0.05    0.24

  REM The information below was added by Olex2.
  REM
  REM R1 = 0.0432 for 3382 Fo > 4sig(Fo) and 0.0458 for all 12375 data
  REM n/a parameters refined using n/a restraints
  REM Highest difference peak 0.78, deepest hole -0.80
  REM Mean Shift 0, Max Shift -0.001.

  REM +++ Tabular Listing of Refinement Information +++
  REM R1_all = 0.0458
  REM R1_gt = 0.0432
  REM wR_ref = 0.1140
  REM GOOF = 1.078
  REM Shift_max = -0.001
  REM Shift_mean = 0
  REM Reflections_all = 12375
  REM Reflections_gt = 3382
  REM Parameters = n/a
  REM Hole = -0.80
  REM Peak = 0.78
  REM Flack = n/a

  
;
_cod_data_source_file            suppl_ncrs-2019-0126_suppl.cif
_cod_data_source_block           shelx
_cod_database_code               8105860
_shelx_space_group_comment
;
The symmetry employed for this shelxl refinement is uniquely defined
by the following loop, which should always be used as a source of
symmetry information in preference to the above space-group names.
They are only intended as comments.
;
_shelx_estimated_absorpt_t_max   0.914
_shelx_estimated_absorpt_t_min   0.744
_olex2_refinement_description
;
1. Fixed Uiso
 At 1.2 times of:
  All C(H) groups, All C(H,H) groups, All O(H,H) groups
2. Restrained distances
 O2'-O3'
 2.2 with sigma of 0.02
 N7-O2'
 1.15 with sigma of 0.02
 N7-O3'
 1.15 with sigma of 0.02
 N7-O1'
 1.15 with sigma of 0.02
 O2'-O1'
 2.2 with sigma of 0.02
 O3'-O1'
 2.2 with sigma of 0.02
 O4-H4C = O4-H4D
 0.84 with sigma of 0.005
 H4D-H4C
 1.36 with sigma of 0.01
 O1'-N7 = O2-N7 = O3'-N7 = O1-N7 = O2'-N7 = O3-N7
 1.19 with sigma of 0.01
3. Uiso/Uaniso restraints and constraints
All non-hydrogen atoms have similar U: within 3.8A with sigma of 0.02 and sigma
for terminal atoms of 0.04
4. Others
 Sof(O1')=Sof(O2')=Sof(O3')=1-FVAR(1)
 Sof(O1)=Sof(O2)=Sof(O3)=FVAR(1)
 Fixed Sof: O4(0.5)
5.a Riding coordinates:
 O1'(H4C,H4D)
5.b Secondary CH2 refined with riding coordinates:
 C4(H4A,H4B), C9(H9A,H9B)
5.c Aromatic/amide H refined with riding coordinates:
 C1(H1), C14(H14), C2(H2), C3(H3), C5(H5), C6(H6), C7(H7), C8(H8), C11(H11),
 C12(H12)
;
_olex2_submission_special_instructions 'No special instructions were received'
_publcif_funding_html
;
;
loop_
_space_group_symop_operation_xyz
'x, y, z'
'-x, -y, -z'
loop_
_atom_site_label
_atom_site_type_symbol
_atom_site_fract_x
_atom_site_fract_y
_atom_site_fract_z
_atom_site_U_iso_or_equiv
_atom_site_adp_type
_atom_site_occupancy
_atom_site_site_symmetry_order
_atom_site_calc_flag
_atom_site_refinement_flags_posn
_atom_site_refinement_flags_adp
_atom_site_refinement_flags_occupancy
_atom_site_disorder_assembly
_atom_site_disorder_group
Cd1 Cd 0.000000 0.000000 0.000000 0.04795(13) Uani 1 2 d S TU P . .
O1 O -0.2772(8) 0.0498(8) 0.2279(6) 0.132(2) Uani 0.818(7) 1 d D U . A 1
O1' O -0.3226(16) 0.1908(14) 0.0151(11) 0.108(5) Uani 0.182(7) 1 d D U . A 2
H4C H -0.400643 0.182846 -0.102156 0.130 Uiso 1 1 d DR . . . .
H4D H -0.562983 0.107196 -0.196696 0.130 Uiso 1 1 d DR . . . .
O2 O -0.2504(6) 0.0745(6) 0.0318(5) 0.1002(15) Uani 0.818(7) 1 d D U . A 1
O2' O -0.360(4) 0.154(3) 0.211(2) 0.135(7) Uani 0.182(7) 1 d D U . A 2
O3 O -0.3672(6) 0.2199(5) 0.1317(5) 0.0897(14) Uani 0.818(7) 1 d D U . A 1
O3' O -0.241(3) 0.0196(15) 0.098(2) 0.096(4) Uani 0.182(7) 1 d D U . A 2
O4 O -0.4762(14) 0.1718(11) -0.1816(9) 0.138(3) Uani 0.5 1 d D U . . .
N1 N 0.3707(4) 0.1259(3) 0.4058(3) 0.0538(6) Uani 1 1 d . U . . .
N3 N 0.1566(4) 0.0438(3) 0.2270(3) 0.0565(6) Uani 1 1 d . U . . .
N4 N 0.0856(4) 0.2240(3) -0.0479(3) 0.0536(6) Uani 1 1 d . U . . .
N6 N 0.0511(4) 0.4201(3) -0.1366(3) 0.0507(6) Uani 1 1 d . U . . .
N7 N -0.2960(5) 0.1220(4) 0.1235(4) 0.0850(11) Uani 1 1 d D U . . .
C1 C -0.0108(5) 0.3821(3) -0.4344(3) 0.0567(8) Uani 1 1 d . U . . .
H1 H -0.017826 0.301944 -0.390476 0.068 Uiso 1 1 calc R . . . .
C14 C -0.0254(4) 0.2989(3) -0.1127(3) 0.0532(7) Uani 1 1 d . U . . .
H14 H -0.142154 0.270627 -0.138585 0.064 Uiso 1 1 calc R . . . .
C2 C 0.1108(5) 0.0191(3) 0.3445(4) 0.0562(7) Uani 1 1 d . U . . .
H2 H 0.005654 -0.026257 0.347579 0.067 Uiso 1 1 calc R . . . .
C3 C -0.0005(5) 0.6264(3) -0.4312(3) 0.0557(7) Uani 1 1 d . U . . .
H3 H -0.000513 0.712281 -0.385265 0.067 Uiso 1 1 calc R . . . .
C4 C -0.0311(5) 0.5209(4) -0.2192(3) 0.0614(8) Uani 1 1 d . U . . .
H4A H 0.017762 0.613801 -0.174699 0.074 Uiso 1 1 calc R . . . .
H4B H -0.150796 0.506956 -0.223130 0.074 Uiso 1 1 calc R . . . .
C5 C 0.2387(5) 0.3023(4) -0.0314(4) 0.0652(9) Uani 1 1 d . U . . .
H5 H 0.342062 0.276167 0.011061 0.078 Uiso 1 1 calc R . . . .
C6 C 0.2208(5) 0.4237(4) -0.0852(4) 0.0653(9) Uani 1 1 d . U . . .
H6 H 0.306675 0.494913 -0.086801 0.078 Uiso 1 1 calc R . . . .
C7 C 0.3155(5) 0.1074(4) 0.2699(4) 0.0619(8) Uani 1 1 d . U . . .
H7 H 0.380678 0.135750 0.211182 0.074 Uiso 1 1 calc R . . . .
C8 C 0.2395(5) 0.0697(4) 0.4549(3) 0.0597(8) Uani 1 1 d . U . . .
H8 H 0.239989 0.067265 0.547091 0.072 Uiso 1 1 calc R . . . .
C9 C 0.5332(5) 0.2088(4) 0.4847(4) 0.0649(9) Uani 1 1 d . U . . .
H9A H 0.620592 0.193329 0.439533 0.078 Uiso 1 1 calc R . . . .
H9B H 0.565688 0.179883 0.576666 0.078 Uiso 1 1 calc R . . . .
C10 C 0.5186(4) 0.3608(3) 0.4949(4) 0.0540(7) Uani 1 1 d . U . . .
C11 C 0.4718(5) 0.4228(4) 0.6033(4) 0.0635(8) Uani 1 1 d . U . . .
H11 H 0.453137 0.371399 0.673567 0.076 Uiso 1 1 calc R . . . .
C12 C 0.5476(5) 0.4380(4) 0.3921(4) 0.0630(8) Uani 1 1 d . U . . .
H12 H 0.580364 0.396922 0.319125 0.076 Uiso 1 1 calc R . . . .
C13 C -0.0119(4) 0.5087(3) -0.3641(3) 0.0480(6) Uani 1 1 d . U . . .
loop_
_atom_site_aniso_label
_atom_site_aniso_U_11
_atom_site_aniso_U_22
_atom_site_aniso_U_33
_atom_site_aniso_U_23
_atom_site_aniso_U_13
_atom_site_aniso_U_12
Cd1 0.0628(2) 0.03602(17) 0.04666(19) 0.00409(11) 0.02055(14) 0.00235(12)
O1 0.135(4) 0.173(6) 0.101(4) 0.057(4) 0.036(3) 0.046(4)
O1' 0.072(8) 0.123(11) 0.132(11) -0.006(10) 0.033(8) 0.028(8)
O2 0.096(3) 0.141(4) 0.088(3) 0.007(3) 0.049(2) 0.059(3)
O2' 0.125(12) 0.139(14) 0.148(14) -0.021(12) 0.040(12) 0.059(12)
O3 0.085(2) 0.082(3) 0.106(3) -0.011(2) 0.027(2) 0.036(2)
O3' 0.098(6) 0.094(7) 0.099(7) 0.008(6) 0.030(6) 0.024(6)
O4 0.153(6) 0.157(7) 0.122(6) 0.036(5) 0.052(5) 0.049(5)
N1 0.0689(16) 0.0382(11) 0.0532(14) -0.0023(10) 0.0156(12) 0.0103(11)
N3 0.0713(16) 0.0495(13) 0.0481(13) -0.0002(11) 0.0229(13) -0.0029(12)
N4 0.0623(15) 0.0430(12) 0.0546(14) 0.0109(11) 0.0136(12) 0.0058(11)
N6 0.0664(15) 0.0427(12) 0.0437(12) 0.0076(10) 0.0138(11) 0.0113(11)
N7 0.0613(19) 0.087(3) 0.105(3) -0.020(2) 0.033(2) 0.0001(18)
C13 0.0591(16) 0.0408(13) 0.0439(14) 0.0056(11) 0.0088(13) 0.0171(12)
C1 0.085(2) 0.0359(13) 0.0507(15) 0.0107(12) 0.0153(15) 0.0173(14)
C14 0.0602(17) 0.0488(15) 0.0486(15) 0.0048(12) 0.0120(14) 0.0076(13)
C2 0.0701(19) 0.0469(15) 0.0611(18) 0.0102(13) 0.0322(16) 0.0114(14)
C3 0.080(2) 0.0357(13) 0.0496(15) 0.0029(12) 0.0109(15) 0.0188(14)
C4 0.089(2) 0.0522(16) 0.0501(16) 0.0123(13) 0.0200(16) 0.0310(16)
C5 0.0577(18) 0.0603(19) 0.075(2) 0.0246(17) 0.0109(17) 0.0069(15)
C6 0.0648(19) 0.0570(18) 0.069(2) 0.0198(16) 0.0107(17) -0.0019(15)
C7 0.074(2) 0.0564(17) 0.0539(17) -0.0015(14) 0.0259(16) -0.0069(15)
C8 0.082(2) 0.0570(17) 0.0481(16) 0.0104(14) 0.0253(16) 0.0225(16)
C9 0.068(2) 0.0512(17) 0.069(2) -0.0073(15) 0.0056(17) 0.0199(15)
C10 0.0460(15) 0.0457(15) 0.0645(18) -0.0117(13) 0.0078(14) 0.0098(12)
C11 0.072(2) 0.0529(17) 0.0635(19) -0.0081(15) 0.0196(17) 0.0084(15)
C12 0.070(2) 0.0551(18) 0.0647(19) -0.0120(15) 0.0233(17) 0.0125(15)
loop_
_atom_type_symbol
_atom_type_description
_atom_type_scat_dispersion_real
_atom_type_scat_dispersion_imag
_atom_type_scat_source
C C 0.0030 0.0020 'International Tables Vol C Tables 4.2.6.8 and 6.1.1.4'
H H 0.0000 0.0000 'International Tables Vol C Tables 4.2.6.8 and 6.1.1.4'
Cd Cd -0.8080 1.2020 'International Tables Vol C Tables 4.2.6.8 and 6.1.1.4'
N N 0.0060 0.0030 'International Tables Vol C Tables 4.2.6.8 and 6.1.1.4'
O O 0.0110 0.0060 'International Tables Vol C Tables 4.2.6.8 and 6.1.1.4'
loop_
_geom_angle_atom_site_label_1
_geom_angle_atom_site_label_2
_geom_angle_atom_site_label_3
_geom_angle
_geom_angle_site_symmetry_1
_geom_angle_site_symmetry_3
O2 Cd1 O2 180.0 2 .
O2 Cd1 O3' 159.2(4) . 2
O2 Cd1 O3' 20.8(4) 2 2
N3 Cd1 O2 83.08(14) . 2
N3 Cd1 O2 96.92(14) . .
N3 Cd1 O2 96.92(14) 2 2
N3 Cd1 O2 83.08(14) 2 .
N3 Cd1 O3' 83.7(5) 2 2
N3 Cd1 O3' 96.3(5) 2 .
N3 Cd1 O3' 96.3(5) . 2
N3 Cd1 O3' 83.7(5) . .
N3 Cd1 N3 180.0 . 2
N3 Cd1 N4 87.15(10) 2 .
N3 Cd1 N4 87.15(10) . 2
N3 Cd1 N4 92.85(10) . .
N3 Cd1 N4 92.85(10) 2 2
N4 Cd1 O2 91.83(17) . 2
N4 Cd1 O2 88.18(17) 2 2
N4 Cd1 O2 91.82(17) 2 .
N4 Cd1 O2 88.18(17) . .
N4 Cd1 O3' 75.2(4) 2 .
N4 Cd1 O3' 104.8(4) . .
N4 Cd1 O3' 104.8(4) 2 2
N4 Cd1 O3' 75.2(4) . 2
N4 Cd1 N4 180.0 2 .
N7 O1' H4C 143.0 . .
N7 O2 Cd1 137.3(4) . .
N7 O3' Cd1 128.1(14) . .
H4C O4 H4D 119.1 . .
C7 N1 C8 106.6(3) . .
C7 N1 C9 125.0(3) . .
C8 N1 C9 127.9(3) . .
C2 N3 Cd1 130.0(2) . .
C7 N3 Cd1 125.0(2) . .
C7 N3 C2 104.9(3) . .
C14 N4 Cd1 121.3(2) . .
C14 N4 C5 104.9(3) . .
C5 N4 Cd1 133.6(2) . .
C14 N6 C4 126.0(3) . .
C14 N6 C6 107.2(3) . .
C6 N6 C4 126.3(3) . .
O2 N7 O1 113.9(5) . .
O2 N7 O3 130.4(6) . .
O2' N7 O1' 116.9(12) . .
O2' N7 O3' 131.8(15) . .
O3 N7 O1 115.4(5) . .
O3' N7 O1' 109.2(11) . .
C1 C13 C4 122.1(3) . .
C3 C13 C1 118.6(3) . .
C3 C13 C4 119.3(3) . .
C13 C1 H1 119.6 . .
C3 C1 C13 120.7(3) 2_564 .
C3 C1 H1 119.6 2_564 .
N4 C14 N6 111.5(3) . .
N4 C14 H14 124.2 . .
N6 C14 H14 124.2 . .
N3 C2 H2 125.1 . .
C8 C2 N3 109.8(3) . .
C8 C2 H2 125.1 . .
C13 C3 H3 119.7 . .
C1 C3 C13 120.7(3) 2_564 .
C1 C3 H3 119.7 2_564 .
N6 C4 C13 112.2(3) . .
N6 C4 H4A 109.2 . .
N6 C4 H4B 109.2 . .
C13 C4 H4A 109.2 . .
C13 C4 H4B 109.2 . .
H4A C4 H4B 107.9 . .
N4 C5 H5 124.7 . .
C6 C5 N4 110.7(3) . .
C6 C5 H5 124.7 . .
N6 C6 H6 127.2 . .
C5 C6 N6 105.7(3) . .
C5 C6 H6 127.2 . .
N1 C7 N3 112.1(3) . .
N1 C7 H7 124.0 . .
N3 C7 H7 124.0 . .
N1 C8 H8 126.7 . .
C2 C8 N1 106.6(3) . .
C2 C8 H8 126.7 . .
N1 C9 H9A 109.6 . .
N1 C9 H9B 109.6 . .
N1 C9 C10 110.4(3) . .
H9A C9 H9B 108.1 . .
C10 C9 H9A 109.6 . .
C10 C9 H9B 109.6 . .
C11 C10 C9 121.1(4) . .
C12 C10 C9 119.4(3) . .
C12 C10 C11 119.5(3) . .
C10 C11 H11 119.9 . .
C10 C11 C12 120.2(4) . 2_666
C12 C11 H11 119.9 2_666 .
C10 C12 C11 120.3(3) . 2_666
C10 C12 H12 119.9 . .
C11 C12 H12 119.9 2_666 .
loop_
_geom_bond_atom_site_label_1
_geom_bond_atom_site_label_2
_geom_bond_distance
_geom_bond_site_symmetry_2
Cd1 O2 2.372(4) 2
Cd1 O2 2.372(4) .
Cd1 O3' 2.458(19) 2
Cd1 O3' 2.458(19) .
Cd1 N3 2.298(3) .
Cd1 N3 2.298(3) 2
Cd1 N4 2.334(3) .
Cd1 N4 2.334(3) 2
O1 N7 1.297(6) .
O1' H4C 1.1836 .
O1' N7 1.309(7) .
O2 N7 1.173(5) .
O2' N7 1.188(8) .
O3 N7 1.198(5) .
O3' N7 1.195(8) .
O4 H4C 0.8694 .
O4 H4D 0.8634 .
N1 C7 1.318(5) .
N1 C8 1.371(5) .
N1 C9 1.470(5) .
N3 C2 1.362(4) .
N3 C7 1.323(5) .
N4 C14 1.321(4) .
N4 C5 1.352(5) .
N6 C14 1.335(4) .
N6 C4 1.460(4) .
N6 C6 1.359(5) .
C13 C1 1.385(4) .
C13 C3 1.380(4) .
C13 C4 1.508(4) .
C1 H1 0.9300 .
C1 C3 1.380(5) 2_564
C14 H14 0.9300 .
C2 H2 0.9300 .
C2 C8 1.337(5) .
C3 H3 0.9300 .
C4 H4A 0.9700 .
C4 H4B 0.9700 .
C5 H5 0.9300 .
C5 C6 1.350(5) .
C6 H6 0.9300 .
C7 H7 0.9300 .
C8 H8 0.9300 .
C9 H9A 0.9700 .
C9 H9B 0.9700 .
C9 C10 1.507(4) .
C10 C11 1.377(5) .
C10 C12 1.376(6) .
C11 H11 0.9300 .
C11 C12 1.392(5) 2_666
C12 H12 0.9300 .
loop_
_refln_index_h
_refln_index_k
_refln_index_l
_refln_F_squared_meas
_refln_F_squared_sigma
0 0 2 1796.45 41.38
0 0 2 1852.66 43.47
0 0 -2 1805.34 41.91
0 0 -2 1871.03 43.87
0 0 3 76.36 1.02
0 0 3 77.39 1.19
0 0 -3 75.14 0.92
0 0 -3 77.14 0.99
0 0 4 119.72 1.62
0 0 4 121.67 1.88
0 0 -4 121.03 1.77
0 0 -4 122.48 1.62
0 0 5 506.99 7.89
0 0 5 506.18 8.08
0 0 -5 501.19 7.88
0 0 -5 519.4 8.83
0 0 6 23.01 0.86
0 0 6 23.35 1.15
0 0 -6 20.97 1.02
0 0 -6 23.15 1.15
0 0 7 71.99 1.5
0 0 7 73.06 1.96
0 0 -7 72.19 1.82
0 0 -7 72.23 2.06
0 0 8 127.51 2.47
0 0 8 127.28 3.1
0 0 -8 133.65 2.93
0 0 -8 131.42 2.6
0 0 9 61.19 1.78
0 0 9 62.12 1.76
0 0 -9 60.53 2.2
0 0 -9 62.43 2.6
0 0 10 14.86 1.29
0 0 10 15.97 1.81
0 0 -10 13.71 1.71
0 0 -10 12.7 2.02
0 0 11 1.41 1.25
0 0 11 2.51 1.74
0 0 -11 0.69 1.66
0 0 -11 -0.34 1.97
0 0 12 3.6 1.45
0 0 12 5.52 2.04
0 0 -12 3.83 1.97
0 0 -12 3.4 2.37
0 1 -12 7.3 1.43
0 1 -12 4.91 2.45
0 -1 12 6.15 1.6
0 -1 12 6.02 2.09
0 1 -11 11.33 2
0 1 -11 11.57 1.5
0 -1 11 11.55 1.49
0 1 -10 6.44 1.71
0 1 -10 6.13 1.9
0 -1 10 6.41 0.82
0 -1 10 8.42 1.68
0 1 -9 64.63 2.44
0 1 -9 68.31 2.65
0 -1 9 61 1.91
0 -1 9 65.64 2.37
0 1 -8 40.3 1.78
0 1 -8 39.59 1.87
0 -1 8 41.21 1.38
0 -1 8 40.87 1.68
0 1 -7 53.49 1.69
0 1 -7 52.84 1.27
0 -1 7 53.63 1.39
0 -1 7 54.19 1.23
0 1 -6 96.34 1.99
0 1 -6 91.44 1.58
0 -1 6 93.51 1.71
0 -1 6 88.46 1.9
0 1 -5 240.36 3.72
0 1 -5 239.94 3.83
0 -1 5 236.57 3.4
0 -1 5 227.58 3.57
0 1 -4 543.34 8.36
0 1 -4 541.7 8.34
0 -1 4 546.58 8.15
0 -1 4 539.86 8.59
0 1 -3 250 3.09
0 1 -3 251.2 3.32
0 -1 3 252.93 3.18
0 -1 3 247.33 3.01
0 1 -2 8.56 0.44
0 1 -2 7.52 0.41
0 -1 2 7.02 0.41
0 -1 2 6.99 0.42
0 1 1 787.48 11.15
0 1 1 742.48 11.07
0 -1 -1 722.85 11.07
0 1 2 591.71 8.12
0 1 2 595.91 8.64
0 -1 -2 600.39 8.27
0 -1 -2 578.03 8.62
0 1 3 705.82 11.1
0 1 3 701.34 11.84
0 -1 -3 715.37 11.14
0 -1 -3 710.9 11.87
0 1 4 1748.74 41.64
0 1 4 1750.87 43.36
0 -1 -4 1752.77 42.25
0 -1 -4 1743.56 44.07
0 1 5 177.98 2.4
0 1 5 171.27 2.53
0 -1 -5 175.15 2.51
0 -1 -5 169.39 2.5
0 1 6 235.97 3.35
0 1 6 220.24 3.48
0 -1 -6 229.42 3.56
0 -1 -6 220.75 3.97
0 1 7 105.86 1.87
0 1 7 99.97 2.46
0 -1 -7 104.11 2.11
0 -1 -7 104.82 2.53
0 1 8 46.45 1.34
0 1 8 46.79 1.41
0 -1 -8 50.17 1.62
0 -1 -8 48.95 2.01
0 1 9 42.46 1.46
0 1 9 38.67 2.11
0 -1 -9 44.68 1.77
0 -1 -9 44.36 2.26
0 1 10 13.91 1.26
0 1 10 15.16 1.89
0 -1 -10 13.88 1.53
0 -1 -10 13.68 2.06
0 1 11 12.63 1.36
0 1 11 12.94 1.37
0 -1 -11 12.46 1.8
0 -1 -11 10.76 2.3
0 1 12 11.06 1.49
0 1 12 9.86 2.29
0 2 -12 7.63 2.41
0 2 -12 8.93 2.54
0 -2 12 5.74 1.04
0 -2 12 6.8 2.11
0 2 -11 17.5 2.33
0 2 -11 18.55 1.62
0 -2 11 17.63 1.66
0 -2 11 19.91 2.09
0 2 -10 30.18 2.24
0 2 -10 25.52 1.54
0 -2 10 24.44 1.66
0 -2 10 25.58 2
0 2 -9 124.72 3.68
0 2 -9 131.97 2.83
0 -2 9 123.39 2.95
0 -2 9 117.24 2.57
0 2 -8 117.61 3.02
0 2 -8 115.48 3.04
0 -2 8 114.07 2.48
0 -2 8 114.67 2.89
0 2 -7 3.58 0.78
0 2 -7 4.93 1.14
0 -2 7 4.4 0.87
0 -2 7 4.02 1.06
0 2 -6 9.99 1.09
0 2 -6 10.78 0.68
0 -2 6 11.73 0.98
0 2 -5 689.9 12.83
0 2 -5 698.44 12.9
0 -2 5 704.51 12.54
0 -2 5 681.64 12.51
0 2 -4 211.13 3.2
0 2 -4 206.52 2.73
0 -2 4 210.02 2.69
0 -2 4 206.82 2.98
0 2 -3 1462.34 32.66
0 2 -3 1433.88 31.25
0 -2 3 1431.05 31.06
0 -2 3 1474.76 32.38
0 2 -2 72.94 1.11
0 2 -2 71.04 1.03
0 -2 2 71.63 0.86
0 -2 2 70.71 1.02
0 2 -1 995.96 17.36
0 2 -1 997.78 17.55
0 -2 1 985.32 17.28
0 -2 1 1032.44 17.93
0 2 0 1577.78 33.17
0 2 0 1529.31 33.03
0 -2 0 1570.03 33.09
0 -2 0 1590.02 34.55
0 2 1 434.85 5.24
0 2 1 425 5.68
0 -2 -1 419.47 5.13
0 -2 -1 430.18 5.66
0 2 2 91.76 0.98
0 2 2 89.12 1.29
0 -2 -2 91.16 1.01
0 -2 -2 88.86 1.39
0 2 3 116.31 1.33
0 2 3 114.25 1.48
0 2 3 119.33 1.79
0 2 3 111.15 1.53
0 2 4 202.61 2.5
0 2 4 203.65 2.59
0 2 4 206.91 3.21
0 2 4 198.32 2.82
0 2 5 367.32 5.14
0 2 5 360.32 5.23
0 2 5 358.61 6.08
0 2 5 356.99 6.15
0 2 6 147.35 2.17
0 2 6 140.72 2.94
0 2 7 81.95 1.54
0 2 7 81.22 2.36
0 2 8 45.66 1.24
0 2 8 46.44 2.09
0 2 9 33.73 1.3
0 2 9 35.56 1.56
0 2 9 31.82 2.15
0 2 9 31.94 2.17
0 2 10 4.19 1.04
0 2 10 5.66 1.33
0 2 10 5.07 1.2
0 2 10 7.28 1.84
0 2 11 8.6 1.65
0 2 11 11.55 1.62
0 2 11 11.29 2.22
0 2 11 10.8 2.16
0 2 12 8.59 2.51
0 2 12 9.01 2.34
0 3 -12 13.49 2.69
0 3 -12 13.19 1.83
0 -3 12 12.98 1.22
0 -3 12 13.74 2.27
0 3 -11 17.96 2.41
0 3 -11 15.14 1.63
0 -3 11 13.28 1.72
0 -3 11 15.32 2.04
0 3 -10 27.93 2.39
0 3 -10 25.43 1.56
0 -3 10 26.07 1.73
0 -3 10 22.04 1.98
0 3 -9 106.05 3.59
0 3 -9 113.5 3.54
0 -3 9 106.71 2.18
0 -3 9 110.87 3.21
0 3 -8 45.79 2.14
0 3 -8 44.29 2.02
0 -3 8 46.02 1.69
0 -3 8 46.45 1.88
0 3 -7 138.28 3.29
0 3 -7 138.35 3.14
0 -3 7 144.27 2.8
0 -3 7 137.5 2.93
0 3 -6 367.42 6.17
0 3 -6 370.47 6.69
0 -3 6 366.62 6.36
0 -3 6 370.47 6.54
0 3 -5 438.78 7.67
0 3 -5 417.55 6.6
0 -3 5 417.85 6.85
0 -3 5 424.68 7.11
0 3 -4 453.42 7.09
0 3 -4 467.21 7.11
0 -3 4 475.3 7.55
0 -3 4 472.51 7.48
0 3 -3 297.01 4.08
0 3 -3 302.07 4.3
0 -3 3 299.91 4.23
0 -3 3 295.39 3.89
0 3 -2 416.5 6.06
0 3 -2 410.86 5.85
0 -3 2 405.58 5.47
0 -3 2 404.34 5.5
0 3 -1 943.82 16.68
0 3 -1 936.05 16.54
0 -3 1 941.63 16.45
0 -3 1 963.17 17.47
0 3 0 253.9 3.04
0 3 0 251.13 3.22
0 -3 0 249.51 2.96
0 -3 0 252 3.36
0 3 1 2.22 0.31
0 3 1 3.22 0.34
0 -3 -1 2.1 0.6
0 3 2 711.78 10.82
0 3 2 708.26 11.7
0 -3 -2 708.42 11.01
0 -3 -2 707.62 12.34
0 3 3 347.68 4.36
0 3 3 350.3 5.31
0 -3 -3 348 4.49
0 -3 -3 343.13 5.02
0 3 4 329.06 4.35
0 3 4 329.96 4.36
0 3 4 331.66 5.34
0 3 4 326.95 5.45
0 3 5 0.79 0.47
0 3 5 0.67 0.46
0 3 5 0.58 0.87
0 3 5 1.19 0.98
0 3 6 43.45 0.99
0 3 6 44.15 1.03
0 3 6 44.47 1.62
0 3 6 43.05 1.74
0 3 7 75.34 1.72
0 3 7 72.15 1.5
0 3 7 74.71 1.69
0 3 7 76.39 2.4
0 3 8 24.24 1.01
0 3 8 26.93 1.41
0 3 8 24.84 1.82
0 3 8 23.09 1.89
0 3 9 45.69 1.38
0 3 9 45.94 2
0 3 9 48.37 1.7
0 3 9 47.57 2.5
0 3 10 7.78 1.02
0 3 10 7.98 1.21
0 3 10 7.09 1.98
0 3 10 8.05 2.02
0 3 11 5.84 1.08
0 3 11 4.89 1.38
0 3 11 5.01 1.41
0 3 11 6.77 2.19
0 4 -12 2.28 2.58
0 4 -12 2.35 2.52
0 -4 12 3.02 1.07
0 -4 12 1.91 2.07
0 4 -11 7.22 2.39
0 4 -11 4.82 2.25
0 -4 11 6.61 1.05
0 -4 11 3.49 1.24
0 4 -10 9.93 2.28
0 4 -10 9.25 2.27
0 -4 10 15.45 1.65
0 -4 10 12.01 1.86
0 4 -9 45.52 2.59
0 4 -9 45.61 2.39
0 -4 9 38.43 1.98
0 -4 9 45.36 2.16
0 4 -8 60.45 2.57
0 4 -8 57.09 1.67
0 -4 8 56.36 1.41
0 -4 8 57.77 1.51
0 4 -7 -0.04 1.37
0 4 -7 0.57 1.19
0 -4 7 0.48 1.02
0 -4 7 1.13 1.07
0 4 -6 250.77 4.97
0 4 -6 240.55 3.93
0 -4 6 246.92 4.36
0 4 -5 295.59 4.83
0 4 -5 305.76 5.12
0 -4 5 294.12 4.42
0 -4 5 303.12 4.57
0 4 -4 187.34 3.24
0 4 -4 193.29 3.08
0 -4 4 189.67 2.63
0 -4 4 193.91 3.04
0 4 -3 577.61 9.9
0 4 -3 578.67 9.69
0 -4 3 577.8 9.59
0 -4 3 569.48 9.54
0 4 -2 167.61 2.48
0 4 -2 166.63 2.16
0 -4 2 170.42 2.14
0 -4 2 166.76 2.47
0 4 -1 1571.89 36.67
0 4 -1 1544.5 35.57
0 -4 1 1567.18 36.18
0 -4 1 1597.96 37.76
0 4 0 177.19 2.26
0 4 0 176.11 2.47
0 -4 0 174.63 2.04
0 -4 0 172.28 2.29
0 4 1 472.44 6.51
0 4 1 478.52 7.08
0 -4 -1 479.1 6.83
0 -4 -1 476.03 7.73
0 4 2 53.93 0.79
0 4 2 54.96 0.95
0 -4 -2 53.47 0.86
0 -4 -2 53.41 1.33
0 4 3 449.25 6.17
0 4 3 446.92 7.38
0 -4 -3 439.91 6.33
0 -4 -3 434.82 7.04
0 4 4 178.22 2.32
0 4 4 171.99 2.17
0 4 4 171.84 3
0 4 4 166.6 2.73
0 4 5 43.25 0.9
0 4 5 41.17 0.99
0 4 5 41.55 1.5
0 4 5 42.77 1.2
0 4 6 154.43 2.6
0 4 6 159.96 2.3
0 4 6 153.33 2.73
0 4 6 158.56 3.68
0 4 7 0.24 0.85
0 4 7 0.85 0.62
0 4 7 0.15 0.8
0 4 7 0.89 0.9
0 4 8 43.87 1.23
0 4 8 42.52 1.2
0 4 8 45.69 2.19
0 4 8 40.62 2.3
0 4 9 23.33 1.08
0 4 9 22.53 1.47
0 4 9 24.32 2.1
0 4 9 24.31 2.3
0 4 10 4.24 1.21
0 4 10 3.24 1.03
0 4 10 5.89 1.89
0 4 10 5.17 1.32
0 4 11 20.05 1.65
0 4 11 16.05 2.6
0 5 -12 17.57 3.2
0 5 -12 19.74 3.03
0 -5 12 18.19 2.13
0 5 -11 7.63 2.67
0 5 -11 9.77 2.45
0 -5 11 9 1.79
0 -5 11 5.25 2.04
0 5 -10 14.91 2.53
0 5 -10 13.17 2.28
0 -5 10 17.23 1.76
0 -5 10 15.14 2.01
0 5 -9 31.63 2.58
0 5 -9 34.37 2.4
0 -5 9 33.48 1.32
0 -5 9 31.79 2.06
0 5 -8 1.79 1.64
0 5 -8 1.9 1.48
0 -5 8 0.85 1.25
0 -5 8 0.67 0.83
0 5 -7 78.17 2.72
0 5 -7 82.04 2.51
0 -5 7 78.5 2.19
0 -5 7 74.7 1.67
0 5 -6 170.87 3.14
0 5 -6 174.34 3.58
0 -5 6 171.11 2.8
0 -5 6 172.74 3.5
0 5 -5 97.94 2.47
0 5 -5 98.64 2.28
0 -5 5 99.33 2.1
0 -5 5 99.53 1.73
0 5 -4 35.03 1.42
0 -5 4 34.77 1.19
0 -5 4 36.38 1.24
0 5 -3 1.49 0.56
0 5 -3 3.45 0.76
0 -5 3 0.7 0.46
0 -5 3 1.18 0.8
0 5 -2 317.17 4.99
0 5 -2 310.2 4.83
0 -5 2 319.67 4.85
0 -5 2 320.26 5.07
0 5 -1 236.7 3.49
0 5 -1 235.61 3.55
0 -5 1 243.84 3.47
0 -5 1 240.23 3.43
0 5 0 397.27 5.67
0 5 0 414.26 6.11
0 -5 0 418.3 6.16
0 -5 0 409.43 6.34
0 5 1 53.05 0.95
0 5 1 51.34 1.24
0 -5 -1 50.49 0.99
0 -5 -1 49.11 1.48
0 5 2 507.97 7.71
0 5 2 498.14 8.58
0 -5 -2 511.23 7.9
0 -5 -2 513.67 9.34
0 5 3 212.77 2.73
0 5 3 199.53 3.03
0 -5 -3 211.08 2.9
0 -5 -3 207.52 3.96
0 5 4 126.69 1.7
0 5 4 125.89 2.56
0 -5 -4 130.15 2.19
0 -5 -4 129.75 2.96
0 5 5 52.12 1.1
0 5 5 53.18 0.95
0 5 5 51.19 1.79
0 5 5 52.95 2.04
0 5 6 55.98 1.21
0 5 6 54.21 1.27
0 5 6 53.26 2.02
0 5 6 56 2.34
0 5 7 31.78 1
0 5 7 32 0.92
0 5 7 30.95 1.86
0 5 7 34.26 2.16
0 5 8 37.21 1.41
0 5 8 41.67 2.3
0 5 8 40.79 2.52
0 5 9 5.49 0.81
0 5 9 8.65 1.89
0 5 9 6.86 2.08
0 5 10 8.57 2.1
0 5 10 6.93 1.55
0 6 -11 14.66 1.96
0 6 -11 17.06 2.77
0 -6 11 14.07 2.08
0 -6 11 15.76 2.31
0 6 -10 28.85 3.04
0 6 -10 32.49 2.8
0 -6 10 27.37 1.44
0 -6 10 25.85 2.35
0 6 -9 44.3 3.12
0 6 -9 44.35 1.89
0 -6 9 44.94 2.27
0 -6 9 43.23 2.37
0 6 -8 7.13 2.07
0 6 -8 8.34 1.84
0 -6 8 11.38 1.54
0 -6 8 9.71 1.59
0 6 -7 17.81 1.96
0 6 -7 14.65 1.66
0 -6 7 16.5 1.48
0 -6 7 13.86 1.54
0 6 -6 98.37 2.98
0 6 -6 94.4 2.63
0 -6 6 90.37 1.82
0 -6 6 93.17 2.54
0 6 -5 122.93 3.09
0 6 -5 122.35 2.8
0 -6 5 126.35 2.68
0 -6 5 126.01 2.76
0 6 -4 143.83 2.55
0 6 -4 147.27 2.4
0 -6 4 147.94 2.8
0 -6 4 149.14 2.98
0 6 -3 194.54 3.63
0 6 -3 190.95 3.43
0 -6 3 192.51 3.3
0 -6 3 193.33 3.53
0 6 -2 183.66 3.15
0 6 -2 175.07 2.63
0 -6 2 179.18 2.92
0 -6 2 181.13 2.81
0 6 -1 118.23 1.76
0 6 -1 116.69 1.78
0 -6 1 116.77 1.99
0 -6 1 124.76 2.49
0 6 0 46.65 1.14
0 6 0 43.49 0.96
0 -6 0 45.54 1.12
0 -6 0 44.15 1.12
0 6 1 78.77 1.39
0 6 1 78.57 1.37
0 -6 -1 79.97 1.21
0 -6 -1 83.17 2.09
0 6 2 21.18 0.73
0 6 2 19.1 1.14
0 -6 -2 21.6 0.86
0 -6 -2 20.34 0.97
0 6 3 172.13 2.46
0 6 3 166.48 3.24
0 -6 -3 177.25 2.69
0 -6 -3 177.56 3.79
0 6 4 141.68 2.27
0 6 4 140.72 3.07
0 -6 -4 142.53 2.61
0 -6 -4 138.31 3.52
0 6 5 66.7 1.64
0 6 5 66.42 1.17
0 6 5 66.66 2.14
0 6 5 64.32 1.84
0 6 6 132.96 2.25
0 6 6 134.34 2.01
0 6 6 131.92 2.67
0 6 6 139.27 4.02
0 6 7 1.7 0.94
0 6 7 0.1 0.57
0 6 7 1.17 0.97
0 6 7 1.78 1.13
0 6 8 51.48 2.64
0 6 8 47.91 2.09
0 6 9 12.97 1.38
0 6 9 13.16 2.43
0 6 10 5.07 2.2
0 6 10 6.96 2.54
0 7 -11 3.6 2.79
0 7 -11 3.93 2.58
0 -7 11 1.38 1.27
0 -7 11 4.24 2.18
0 7 -10 37.69 3.38
0 7 -10 30.3 2.03
0 -7 10 32.86 2.38
0 -7 10 30.94 1.79
0 7 -9 15.61 2.76
0 7 -9 18.65 2.44
0 -7 9 19.61 2
0 -7 9 15.9 2.13
0 7 -8 12.4 2.43
0 7 -8 18.24 2.18
0 -7 8 14.55 1.74
0 -7 8 14.76 1.25
0 7 -7 74.21 3.14
0 7 -7 71.29 2.77
0 -7 7 74.03 2.58
0 -7 7 67.18 1.89
0 7 -6 77.02 2.15
0 7 -6 76.54 2.73
0 -7 6 75.69 1.79
0 -7 6 75.5 2.57
0 7 -5 69.71 1.85
0 7 -5 73.47 2.36
0 -7 5 73.38 2.12
0 -7 5 73.15 2.3
0 7 -4 -0.2 0.81
0 7 -4 -0.4 0.71
0 -7 4 1.26 1.04
0 -7 4 1.85 1.15
0 7 -3 135.72 2.41
0 7 -3 138.8 2.92
0 -7 3 136.78 2.69
0 -7 3 133.34 2.39
0 7 -2 53.63 1.26
0 7 -2 54.08 1.24
0 -7 2 54.42 1.54
0 -7 2 53.96 1.39
0 7 -1 304.81 4.82
0 7 -1 307.81 5.51
0 -7 1 308.15 5.22
0 -7 1 303.87 5.99
0 7 0 86.82 1.83
0 7 0 84.22 1.57
0 -7 0 85.49 1.76
0 -7 0 86.39 1.83
0 7 1 159.42 2.69
0 7 1 154.33 3.01
0 -7 -1 154.25 2.68
0 -7 -1 155.78 2.88
0 7 2 61.33 1.38
0 7 2 61.36 1.39
0 -7 -2 61.55 1.48
0 -7 -2 61.87 1.61
0 7 3 178.94 2.79
0 7 3 178.94 3.66
0 -7 -3 177.06 3.05
0 -7 -3 179.66 4.35
0 7 4 2.82 0.84
0 7 4 2.18 1.23
0 -7 -4 1.14 0.81
0 -7 -4 5.15 1.62
0 7 5 61.14 1.46
0 7 5 58 1.22
0 7 5 58.04 2.26
0 7 5 62.46 1.99
0 7 6 2.54 0.97
0 7 6 0.19 0.6
0 7 6 0.17 0.95
0 7 6 1.96 1.81
0 7 7 32.72 1.51
0 7 7 33.92 2.82
0 7 8 41.32 2.6
0 7 8 40.27 3.19
0 7 9 4.13 2.09
0 7 9 5.99 2.52
0 8 -10 0.62 1.86
0 8 -10 8.35 2.59
0 -8 10 2.53 1.27
0 -8 10 2.99 2.12
0 8 -9 9.47 1.81
0 8 -9 11.35 1.6
0 -8 9 10.86 1.31
0 -8 9 9.96 1.43
0 8 -8 11.44 2.57
0 8 -8 8.42 2.14
0 -8 8 9.94 1.2
0 -8 8 10.94 1.99
0 8 -7 49.55 3.14
0 8 -7 53.57 2.73
0 -8 7 52.27 2.46
0 -8 7 58.48 2.6
0 8 -6 73.37 3.18
0 8 -6 75.62 2.87
0 -8 6 74.22 2.62
0 -8 6 70.71 1.99
0 8 -5 80.36 2.21
0 8 -5 80.24 2.83
0 -8 5 79.9 2.53
0 -8 5 83.87 2.78
0 8 -4 84.61 2.81
0 8 -4 82.72 2.58
0 -8 4 84.4 2.41
0 -8 4 83.97 2.01
0 8 -3 49.12 2.07
0 8 -3 50.51 1.98
0 -8 3 45.15 1.78
0 -8 3 49.04 2.14
0 8 -2 47.26 1.83
0 8 -2 48.71 1.83
0 -8 2 50.45 1.7
0 -8 2 44.43 1.52
0 8 -1 2.67 0.69
0 8 -1 4.7 1.16
0 -8 1 5.06 1
0 -8 1 2.28 0.92
0 8 0 105.52 2.31
0 8 0 102.35 2.61
0 -8 0 106.62 2.32
0 -8 0 103.08 3.06
0 8 1 51.2 1.52
0 8 1 49.2 1.88
0 -8 -1 52.85 1.57
0 -8 -1 49.41 2.36
0 8 2 77.9 1.8
0 8 2 72.96 1.73
0 -8 -2 76.3 1.9
0 -8 -2 79.64 2.1
0 8 3 101.15 2.05
0 8 3 105.8 2.81
0 -8 -3 103.68 2.26
0 -8 -3 105.63 3.5
0 8 4 17.67 1.01
0 8 4 20.59 1.69
0 -8 -4 20.23 1.2
0 -8 -4 22.35 1.5
0 8 5 25.39 1.03
0 8 5 26.04 1.34
0 8 6 4.8 0.94
0 8 6 3.88 0.97
0 8 6 7.8 1.69
0 8 6 7.11 2.17
0 8 7 7.27 1.95
0 8 7 13.97 2.59
0 8 8 6.51 1.33
0 8 8 9.14 2.71
0 9 -9 3.14 1.77
0 9 -9 0.64 1.59
0 -9 9 3.39 2.03
0 -9 9 2.93 2.16
0 9 -8 14.32 1.88
0 9 -8 17.32 2.46
0 -9 8 15.41 2.17
0 -9 8 13.08 1.51
0 9 -7 8.9 2.33
0 9 -7 9.59 2.12
0 -9 7 6.47 1.2
0 -9 7 7.77 1.31
0 9 -6 45.31 2.07
0 9 -6 49.3 1.87
0 -9 6 49.43 2.42
0 -9 6 50.27 2.68
0 9 -5 12.86 2.01
0 9 -5 11.44 1.83
0 -9 5 11.33 1.65
0 -9 5 10.23 1.27
0 9 -4 28.82 2.22
0 9 -4 32.59 2.09
0 -9 4 30.51 1.86
0 -9 4 30.84 1.51
0 9 -3 115.69 2.57
0 9 -3 120.8 3.39
0 -9 3 121.06 3.09
0 -9 3 117.74 3.73
0 9 -2 79.28 2.63
0 9 -2 75.96 2.58
0 -9 2 76.76 2.37
0 -9 2 80.36 3
0 9 -1 198.27 4.48
0 9 -1 199.49 3.81
0 -9 1 194.15 3.48
0 -9 1 210.96 5.39
0 9 0 61.81 2.02
0 9 0 65.4 2.36
0 -9 0 61.1 1.49
0 -9 0 63.21 2.8
0 9 1 14.47 1.26
0 9 1 14.15 1.05
0 -9 -1 16.15 1.36
0 -9 -1 13.32 2.11
0 9 2 36.98 1.48
0 9 2 38.51 2
0 -9 -2 33.81 1.62
0 -9 -2 37.86 2.58
0 9 3 16.23 1.19
0 9 3 17.88 1.74
0 -9 -3 17.83 1.38
0 -9 -3 19.58 2.34
0 9 4 19.96 1.2
0 9 4 23.11 1.88
0 -9 -4 19.47 1.37
0 -9 -4 19.16 1.67
0 9 5 17.46 1.12
0 9 5 23.76 2.01
0 -9 -5 19.02 1.37
0 -9 -5 19.1 1.75
0 9 6 11.51 2.02
0 9 6 11.7 1.76
0 9 7 27.29 2.49
0 9 7 24.22 2.15
0 10 -8 18.82 3.31
0 10 -8 15.68 2.82
0 -10 8 20.03 2.42
0 -10 8 21.05 2.65
0 10 -7 14.26 2.91
0 10 -7 13.42 2.52
0 -10 7 12.32 2.13
0 -10 7 18.52 2.5
0 10 -6 18.42 2.65
0 10 -6 16.47 2.37
0 -10 6 17.5 2.1
0 -10 6 18.08 2.47
0 10 -5 7.2 2.2
0 10 -5 10.71 1.34
0 -10 5 6.29 1.73
0 -10 5 6.17 2.14
0 10 -4 11.35 2.09
0 10 -4 15.86 1.97
0 -10 4 12.24 1.76
0 -10 4 11.51 1.45
0 10 -3 28.74 1.51
0 10 -3 28.2 1.46
0 -10 3 25.09 1.29
0 -10 3 25.96 1.69
0 10 -2 17.92 1.89
0 10 -2 20.1 1.9
0 -10 2 18.48 1.67
0 -10 2 17.82 2.29
0 10 -1 38.16 2.04
0 10 -1 35.38 1.47
0 -10 1 38.79 1.97
0 -10 1 37.21 1.81
0 10 0 61.69 2.35
0 10 0 63.95 2.59
0 -10 0 64.05 2.34
0 -10 0 61.72 3.39
0 10 1 38.07 1.84
0 10 1 40.64 2.27
0 -10 -1 40.56 1.96
0 -10 -1 39.4 2.86
0 10 2 43.12 1.87
0 10 2 39.63 2.31
0 -10 -2 44.71 2.04
0 -10 -2 43.02 3.07
0 10 3 36.79 1.69
0 10 3 33.24 2.21
0 -10 -3 32.84 1.89
0 -10 -3 34.33 2.06
0 10 4 10.96 1.25
0 10 4 13.08 1.28
0 -10 -4 10.82 1.5
0 -10 -4 9.83 1.76
0 10 5 8.66 2.05
0 -10 -5 12.48 1.86
0 10 6 11.67 2.29
0 10 6 13.15 3.16
0 11 -7 11.05 2
0 11 -7 7.82 1.76
0 -11 7 12.67 2.31
0 -11 7 10.84 2.72
0 11 -6 17.71 2.98
0 11 -6 20.16 2.7
0 -11 6 18.37 1.52
0 -11 6 20.62 2.91
0 11 -5 2.73 2.37
0 11 -5 6.38 1.38
0 -11 5 5.29 1.26
0 -11 5 3.45 2.39
0 11 -4 31.66 1.84
0 11 -4 31.04 2.55
0 -11 4 28.77 2.29
0 -11 4 28.61 1.96
0 11 -3 15.18 2.15
0 11 -3 13.33 2.06
0 -11 3 11.72 1.21
0 -11 3 8.54 1.59
0 11 -2 18.38 2.17
0 11 -2 14.61 1.47
0 -11 2 17.98 1.29
0 -11 2 19.46 1.78
0 11 -1 17.69 2.07
0 11 -1 22.69 2.1
0 -11 1 20.36 1.93
0 -11 1 19.29 2.75
0 11 0 6.53 1.73
0 11 0 10.56 1.89
0 -11 0 7.55 1.71
0 -11 0 8.81 2.58
0 11 1 1.62 0.96
0 11 1 1.47 1.73
0 -11 -1 -0.61 1.6
0 -11 -1 3.79 2.47
0 11 2 24.91 1.88
0 11 2 22.74 1.54
0 -11 -2 27.01 2.02
0 -11 -2 26.09 2.02
0 11 3 10.52 1.6
0 11 3 10.52 2.08
0 -11 -3 12.1 1.77
0 -11 -3 11.59 2.9
0 11 4 21.59 2.43
0 -11 -4 21.74 1.93
0 -11 -4 22.24 3.45
0 12 -5 10.04 1.81
0 12 -5 8.91 2.54
0 -12 5 6.21 1.46
0 -12 5 8.78 2.82
0 12 -4 12.45 1.67
0 12 -4 8.75 1.61
0 -12 4 11.85 2.19
0 -12 4 13.39 2.89
0 12 -3 26.22 1.84
0 12 -3 22.42 1.75
0 -12 3 24.24 2.38
0 -12 3 26.93 3.29
0 12 -2 3.15 1.39
0 12 -2 3.97 2.15
0 -12 2 2.2 1.89
0 -12 2 6.08 2.71
0 12 -1 23.46 1.64
0 12 -1 23.79 2.56
0 -12 1 21.9 1.53
0 -12 1 26.49 3.26
0 12 0 2.44 1.85
0 12 0 4.23 1.33
0 -12 0 2.63 2.01
0 -12 0 4.59 1.8
0 12 1 15.99 2.15
0 12 1 20.93 1.61
0 -12 -1 21.08 2.45
0 -12 -1 19.27 3.41
0 12 2 8.43 1.86
0 12 2 6.82 2.23
0 -12 -2 8.08 2.12
0 -12 -2 8.2 3.11
1 -12 -3 6.3 2.14
1 -12 -3 8.61 2.96
-1 12 3 3.94 1.79
-1 12 3 5.25 1.33
1 -12 -2 7.77 2.26
1 -12 -2 5.93 1.88
-1 12 2 7.56 1.77
-1 12 2 5.79 2.01
1 -12 -1 13.79 2.34
1 -12 -1 12.04 2.89
-1 12 1 10.9 1.99
-1 12 1 10.77 2.17
1 -12 0 11.2 2.17
1 -12 0 9.37 2.89
-1 12 0 11.44 1.37
-1 12 0 11.42 1.37
1 -12 1 18.26 1.54
1 -12 1 17.43 2.9
-1 12 -1 19.63 1.55
-1 12 -1 15.24 1.56
1 -12 2 4.89 1.35
1 -12 2 10.06 2.67
-1 12 -2 7.37 1.48
-1 12 -2 8.74 1.42
1 -12 3 23.34 2.53
1 -12 3 22.77 3.09
-1 12 -3 24.88 2.81
-1 12 -3 24.12 1.8
1 -12 4 8.74 2.16
1 -12 4 7.53 2.67
-1 12 -4 5.52 2.56
-1 12 -4 4.71 2.34
1 -12 5 3.64 2.31
1 -12 5 5.09 1.79
-1 12 -5 5.31 2.71
-1 12 -5 6.28 2.44
1 -11 -5 34.88 2.31
1 -11 -5 30.72 3.6
-1 11 5 26.04 1.9
-1 11 5 30.77 2.53
1 -11 -4 13.58 2.06
1 -11 -4 17.09 2.97
-1 11 4 12.59 1.67
-1 11 4 17.21 2.14
1 -11 -3 49 2.6
1 -11 -3 44 3.57
-1 11 3 45.22 2.26
-1 11 3 48.39 2.58
1 -11 -2 29.54 2.29
1 -11 -2 28.96 2.01
-1 11 2 25.66 1.96
1 -11 -1 10.46 1.86
1 -11 -1 6.03 1.57
-1 11 1 8.03 1.65
-1 11 1 8.13 1.17
1 -11 0 16.81 1.94
1 -11 0 15.92 2.49
-1 11 0 14.91 1.9
-1 11 0 16.33 1.3
1 -11 1 15.96 1.9
1 -11 1 10.66 1.65
-1 11 -1 16.04 1.95
-1 11 -1 12.51 2
1 -11 2 8.85 1.94
1 -11 2 12.01 2.38
-1 11 -2 12.07 2.01
-1 11 -2 12.68 1.98
1 -11 3 17.21 2.04
1 -11 3 18.87 2.54
-1 11 -3 16.53 1.53
-1 11 -3 14.55 2.17
1 -11 4 9.93 1.38
1 -11 4 14.69 2.5
-1 11 -4 13.07 2.43
-1 11 -4 13.28 1.45
1 -11 5 17.59 1.52
1 -11 5 21.03 1.75
-1 11 -5 16.22 1.79
-1 11 -5 22.03 2.59
1 -11 6 15.24 1.6
1 -11 6 19.78 2.87
-1 11 -6 13.99 2.92
-1 11 -6 18.58 2.81
1 -11 7 10.37 2.54
1 -11 7 14.63 2.82
-1 11 -7 11.01 2.02
-1 11 -7 14.37 1.85
-1 10 6 9.34 1.61
-1 10 6 7.27 1.31
-1 10 6 9.48 1.92
-1 10 6 12.53 2.77
1 -10 -5 21.3 1.92
1 -10 -5 19.87 2.91
-1 10 5 19.12 1.46
-1 10 5 21.11 2.05
1 -10 -4 6.29 1.64
1 -10 -4 3.55 2.43
-1 10 4 10.51 1.33
-1 10 4 9.43 1.13
1 -10 -3 62.51 2.6
1 -10 -3 61.7 2.29
-1 10 3 63.25 2.16
-1 10 3 66.18 2.57
1 -10 -2 43.06 2.19
1 -10 -2 40.34 1.96
-1 10 2 40.46 1.34
-1 10 2 39.4 2.19
1 -10 -1 53.33 1.66
1 -10 -1 56.9 2.12
-1 10 1 56.88 2.2
-1 10 1 52.88 1.62
1 -10 0 88.87 2.17
1 -10 0 90.99 2.64
-1 10 0 87.06 2.8
-1 10 0 85.64 2.18
1 -10 1 18.6 1.75
1 -10 1 14.86 2.2
-1 10 -1 16.32 1.19
-1 10 -1 16.44 1.77
1 -10 2 32.28 1.36
1 -10 2 28.72 1.68
-1 10 -2 32.67 2.13
-1 10 -2 31.74 1.45
1 -10 3 36.3 1.46
1 -10 3 41.38 2.52
-1 10 -3 33.47 1.63
-1 10 -3 37.83 2.27
1 -10 4 6.03 1.67
1 -10 4 7.14 2.03
-1 10 -4 7.78 1.99
-1 10 -4 3.83 1.19
1 -10 5 19.42 2.17
1 -10 5 24.31 1.61
-1 10 -5 25.07 2.58
-1 10 -5 22.55 2.36
1 -10 6 10.29 1.99
1 -10 6 14.08 2.29
-1 10 -6 7.87 1.61
-1 10 -6 11.18 1.55
1 -10 7 13.32 1.46
1 -10 7 13.64 2.5
-1 10 -7 12.25 2.9
-1 10 -7 10.18 2.58
1 -10 8 13.61 2.35
1 -10 8 14.01 2.67
-1 10 -8 9.93 3.09
-1 10 -8 9.43 2.78
-1 9 8 14.32 2.16
-1 9 8 14.16 1.9
-1 9 7 5.73 1.35
-1 9 7 5.56 1.08
-1 9 7 6.83 1.19
-1 9 7 8.89 1.61
-1 9 6 39.1 1.87
-1 9 6 39.5 1.55
-1 9 6 38.38 2.31
-1 9 6 44.87 3.13
1 -9 -5 26.2 1.77
1 -9 -5 27.56 2.67
-1 9 5 27.87 1.4
-1 9 5 25.93 1.92
1 -9 -4 54.36 2.16
1 -9 -4 59.69 2.12
-1 9 4 55.1 1.79
-1 9 4 58.64 2.3
1 -9 -3 49.61 2
1 -9 -3 45.84 2.68
-1 9 3 45.39 1.65
-1 9 3 47.37 1.45
1 -9 -2 1.97 0.84
1 -9 -2 1.32 1.7
-1 9 2 2.5 1.08
-1 9 2 3.13 1.28
1 -9 -1 34.64 1.78
1 -9 -1 34.4 2.27
-1 9 1 36.53 1.55
-1 9 1 32.7 1.76
1 -9 0 3.85 1.27
1 -9 0 2.62 1.64
-1 9 0 2.8 1.24
-1 9 0 2.19 1.32
1 -9 1 176.97 3.23
1 -9 1 186.29 4.66
-1 9 -1 170.66 3.99
-1 9 -1 169.82 3.21
1 -9 2 66.24 2.34
1 -9 2 62.8 1.9
-1 9 -2 62.17 2.43
-1 9 -2 66.87 2.42
1 -9 3 94.56 2.86
1 -9 3 99.61 3.24
-1 9 -3 94.38 2.29
-1 9 -3 94.53 3.06
1 -9 4 40.97 1.47
1 -9 4 41.77 2.37
-1 9 -4 41.54 1.67
-1 9 -4 36.99 1.56
1 -9 5 18.65 1.79
1 -9 5 16.15 2.07
-1 9 -5 20.01 2.23
-1 9 -5 16.43 1.38
1 -9 6 28.39 1.44
1 -9 6 26.56 1.56
-1 9 -6 30.2 2.66
-1 9 -6 34.51 2.52
1 -9 7 6.97 1.93
1 -9 7 10.67 2.11
-1 9 -7 7.4 2.31
-1 9 -7 10.64 1.41
1 -9 8 -0.21 1.19
1 -9 8 0.34 1.31
-1 9 -8 -0.64 2.43
-1 9 -8 3.64 2.28
1 -9 9 14.15 2.24
1 -9 9 11.72 2.5
-1 9 -9 8.36 1.98
-1 9 -9 8.63 1.82
-1 8 9 7.94 1.32
-1 8 9 10.82 2.6
-1 8 8 16.63 2.04
-1 8 8 20.06 2.69
-1 8 7 6.76 1.63
-1 8 7 7.12 1.01
-1 8 7 5.27 1.65
-1 8 7 9.33 2.2
-1 8 6 28.39 1.52
-1 8 6 27.5 1.25
-1 8 6 30.98 1.9
-1 8 6 30.68 2.53
1 -8 -5 68.33 2.11
1 -8 -5 73.5 3.09
-1 8 5 67.96 1.76
-1 8 5 73.21 2.41
1 -8 -4 23.12 1.44
1 -8 -4 20.24 1.32
-1 8 4 20.74 1.13
-1 8 4 21.67 1.53
1 -8 -3 94.94 2.42
1 -8 -3 101.23 3.11
-1 8 3 95.63 2.12
-1 8 3 96.62 2.51
1 -8 -2 78.69 2.12
1 -8 -2 79.37 2.66
-1 8 2 76.47 1.87
-1 8 2 78.24 2.17
1 -8 -1 41.43 1.56
1 -8 -1 39.8 1.97
-1 8 1 39.34 1.43
-1 8 1 36.23 1.62
1 -8 0 177.22 3.54
1 -8 0 184.6 4.12
-1 8 0 174.55 2.87
-1 8 0 172.74 3.59
1 -8 1 12.49 1.2
1 -8 1 10.75 0.99
-1 8 -1 12.15 0.83
-1 8 -1 11.25 1.25
1 -8 2 89.58 1.78
1 -8 2 89.89 2.69
-1 8 -2 88.43 1.87
-1 8 -2 89.91 2.43
1 -8 3 74.32 1.64
1 -8 3 73.25 1.81
-1 8 -3 74.31 2.39
-1 8 -3 73.75 2.36
1 -8 4 29.65 1.79
1 -8 4 31.43 1.32
-1 8 -4 33.38 2.03
-1 8 -4 32.13 1.99
1 -8 5 106.62 3.04
1 -8 5 103.19 2.42
-1 8 -5 101.38 3.49
-1 8 -5 114.76 3.37
1 -8 6 28.19 1.93
1 -8 6 31.07 2.15
-1 8 -6 29.51 2.39
-1 8 -6 26.25 2.28
1 -8 7 32.73 1.42
1 -8 7 39.09 2.36
-1 8 -7 33.56 2.63
-1 8 -7 31.73 1.69
1 -8 8 6.52 1.79
1 -8 8 4.57 1.97
-1 8 -8 5.83 2.34
-1 8 -8 7.33 2.29
1 -8 9 25.31 2.27
1 -8 9 21.45 2.54
-1 8 -9 16.61 3.03
-1 8 -9 18.96 1.83
1 -8 10 4.25 2.03
1 -8 10 2.87 2.28
-1 8 -10 3.9 2.78
-1 8 -10 6 2.73
-1 7 10 4.66 1.27
-1 7 10 3.11 1.54
-1 7 9 19.7 2.15
-1 7 9 20.19 1.74
-1 7 8 50.64 1.8
-1 7 8 52.22 1.57
-1 7 8 52.21 1.81
-1 7 8 55.69 2.19
-1 7 7 16.58 1.25
-1 7 7 16.69 1.33
-1 7 7 15.4 1.12
-1 7 7 18.39 2.12
-1 7 6 129.88 2.78
-1 7 6 126.53 2.86
-1 7 6 133.45 3.4
-1 7 6 140.71 3.95
1 -7 -5 2.13 1.01
1 -7 -5 2.24 1.56
-1 7 5 2.72 0.81
-1 7 5 3.36 0.76
1 -7 -4 112.41 2.39
1 -7 -4 116.16 3.09
-1 7 4 113.25 2.11
-1 7 4 107.39 2.02
1 -7 -3 12.45 1.07
1 -7 -3 11.72 1.48
-1 7 3 12.85 0.89
-1 7 3 9.39 1.15
1 -7 -2 77.98 1.85
1 -7 -2 79.11 1.72
-1 7 2 78.4 1.7
-1 7 2 77.45 1.89
1 -7 -1 108.17 2.23
1 -7 -1 110.87 2.68
-1 7 1 108.37 1.71
-1 7 1 107.05 2.25
1 -7 0 81.69 1.87
1 -7 0 82.83 2.21
-1 7 0 83.59 1.87
-1 7 0 78.3 1.45
1 -7 1 391.21 7
1 -7 1 402.68 7.65
-1 7 -1 401.68 7.3
-1 7 -1 386.69 7.06
1 -7 2 119.28 2.51
1 -7 2 119.98 2.75
-1 7 -2 118.44 2.1
-1 7 -2 120.55 2.08
1 -7 3 19.34 1.27
1 -7 3 20.78 1.44
-1 7 -3 21.81 1.44
-1 7 -3 19.63 1.38
1 -7 4 58.27 1.38
1 -7 4 57.63 1.47
-1 7 -4 59.4 1.55
-1 7 -4 58.05 2.07
1 -7 5 12.03 1.41
1 -7 5 11.97 0.98
-1 7 -5 9.99 1.1
-1 7 -5 13.47 1.63
1 -7 6 147.31 2.87
1 -7 6 145.93 3.89
-1 7 -6 148.04 4.09
-1 7 -6 150.54 4.02
1 -7 7 37.57 2.03
1 -7 7 36.44 2.22
-1 7 -7 35.94 2.56
-1 7 -7 37.88 2.34
1 -7 8 28.62 1.39
1 -7 8 31.82 2.27
-1 7 -8 30.44 2.71
-1 7 -8 28.34 1.68
1 -7 9 31.43 1.52
1 -7 9 30 1.67
-1 7 -9 29.06 3
-1 7 -9 37.41 2.92
1 -7 10 12.6 2.05
1 -7 10 11.84 2.34
-1 7 -10 12.8 2.91
-1 7 -10 12.61 1.81
-1 6 10 10.77 1.97
-1 6 10 5.67 2.3
-1 6 9 35.26 1.61
-1 6 9 35.14 1.47
-1 6 9 40.3 2.37
-1 6 9 38.83 2.69
-1 6 8 23.97 1.7
-1 6 8 23.51 1.21
-1 6 8 23.93 1.23
-1 6 8 27.36 2.21
-1 6 7 29.82 1.36
-1 6 7 29.01 1.2
-1 6 7 27.8 1.17
-1 6 7 30.96 2.13
-1 6 6 66.57 1.71
-1 6 6 69.52 1.55
-1 6 6 67.94 2.09
-1 6 6 69.07 2.5
-1 6 5 111.05 1.98
-1 6 5 107.36 1.94
1 -6 -4 78.21 1.76
1 -6 -4 78.36 1.69
-1 6 4 76.77 1.52
-1 6 4 74.67 1.85
1 -6 -3 264.1 4.33
1 -6 -3 253.46 4.87
-1 6 3 265.07 4.09
-1 6 3 256.84 4.39
1 -6 -2 125.56 2.26
1 -6 -2 126.65 2.62
-1 6 2 125.85 2.06
-1 6 2 118.44 2.22
1 -6 -1 58.88 1.39
1 -6 -1 60.8 1.66
-1 6 1 58.98 1.31
-1 6 1 56.49 1.39
1 -6 0 152.63 2.21
1 -6 0 157.15 2.44
-1 6 0 157.67 2.56
-1 6 0 148.58 2.59
1 -6 1 54.16 1.37
1 -6 1 58.52 1.59
-1 6 -1 54.35 1.4
-1 6 -1 52.33 1.4
1 -6 2 10.88 0.92
1 -6 2 10.56 1.03
-1 6 -2 9.73 1
-1 6 -2 8.94 0.97
1 -6 3 192.72 2.91
1 -6 3 196.54 3.63
-1 6 -3 190.14 3.06
-1 6 -3 197.91 3.58
1 -6 4 18.01 1.2
1 -6 4 15.08 0.85
-1 6 -4 18.85 1.35
-1 6 -4 15.96 0.89
1 -6 5 95.75 1.78
1 -6 5 97.42 1.91
-1 6 -5 93.91 2.02
-1 6 -5 98.54 2.56
1 -6 6 26.67 1.56
1 -6 6 27.48 1.67
-1 6 -6 27.81 1.88
-1 6 -6 25.85 1.79
1 -6 7 4.15 0.86
1 -6 7 7.19 1.46
-1 6 -7 4.3 1.1
-1 6 -7 4.41 1.07
1 -6 8 49.83 2.13
1 -6 8 52.69 2.43
-1 6 -8 44.2 1.91
-1 6 -8 47.35 2.77
1 -6 9 27.51 2.01
1 -6 9 29.37 2.27
-1 6 -9 29.96 2.64
-1 6 -9 29.29 2.66
1 -6 10 7.93 1.16
1 -6 10 8.04 2.14
-1 6 -10 10.45 2.57
-1 6 -10 13.65 2.43
1 -6 11 11.28 2.02
1 -6 11 10.71 2.49
-1 6 -11 13.38 2.96
-1 6 -11 11.92 2.97
-1 5 11 8.08 1.92
-1 5 11 3.03 2.15
-1 5 10 2.7 1.14
-1 5 10 4.68 1.16
-1 5 10 1.9 1.1
-1 5 10 2.52 1.98
-1 5 9 52.49 1.76
-1 5 9 49.61 1.71
-1 5 9 49.28 2.39
-1 5 9 54.47 2.68
-1 5 8 8.51 1.08
-1 5 8 8.52 1.32
-1 5 8 8.98 1.46
-1 5 8 7.78 1.71
-1 5 7 123.54 2.95
-1 5 7 121.81 2.78
-1 5 7 125.6 3
-1 5 7 128.15 3.4
-1 5 6 42.59 1.3
-1 5 6 44.64 1.22
-1 5 6 40.43 1.12
-1 5 6 43.68 1.87
-1 5 5 47.8 1.3
-1 5 5 48.74 1.16
-1 5 5 48.38 1.46
-1 5 5 48.85 1.77
1 -5 -4 292.64 4.68
1 -5 -4 288.21 5.31
-1 5 4 291.77 4.39
-1 5 4 284.04 4.76
1 -5 -3 196.69 2.72
1 -5 -3 199.98 3.47
-1 5 3 201.81 2.92
-1 5 3 198.98 3.17
1 -5 -2 411.14 6.45
1 -5 -2 411.65 6.88
-1 5 2 399.95 6.12
-1 5 2 411.35 6.52
1 -5 -1 152.37 2.31
1 -5 -1 153.15 2.54
-1 5 1 145.06 2.16
-1 5 1 151.4 2.32
1 -5 0 272.93 4.06
1 -5 0 272.64 3.88
-1 5 0 272.37 4.03
-1 5 0 271.53 4.07
1 -5 1 563.51 8.97
1 -5 1 563.55 9.66
-1 5 -1 556.28 8.95
-1 5 -1 559.09 9.39
1 -5 2 124.08 2.22
-1 5 -2 126.09 2.23
-1 5 -2 119.94 1.77
1 -5 3 123.51 2.18
1 -5 3 121.06 1.89
-1 5 -3 134.05 2.46
-1 5 -3 128.52 1.96
1 -5 4 71.5 1.66
1 -5 4 74 1.79
-1 5 -4 72.16 1.87
-1 5 -4 73.34 1.43
1 -5 5 109.2 2.29
1 -5 5 112.83 2.51
-1 5 -5 115.74 2.67
-1 5 -5 112.63 2.57
1 -5 6 36.75 1.45
1 -5 6 32.66 1.14
-1 5 -6 35.83 1.2
-1 5 -6 35.1 1.78
1 -5 7 49.24 1.76
1 -5 7 46.12 2.02
-1 5 -7 46.92 2.21
-1 5 -7 49.16 2.18
1 -5 8 1.38 1.24
1 -5 8 2 1.46
-1 5 -8 1.88 1.07
-1 5 -8 -0.02 1.06
1 -5 9 21.16 1.75
1 -5 9 25.77 2.1
-1 5 -9 23.88 2.37
-1 5 -9 24.04 2.34
1 -5 10 1.01 0.95
1 -5 10 2.94 1.85
-1 5 -10 3.45 2.16
-1 5 -10 1.69 2.19
1 -5 11 4.39 1.71
1 -5 11 4.8 2.1
-1 5 -11 5.16 1.66
-1 5 -11 7.88 2.59
-1 4 11 9.93 1.35
-1 4 11 7.84 1.54
-1 4 11 15.72 2.02
-1 4 11 10.91 2.17
-1 4 10 21.43 1.46
-1 4 10 23.35 1.56
-1 4 10 23.8 2.05
-1 4 10 25.88 2.13
-1 4 9 14.33 1.24
-1 4 9 14.33 1.28
-1 4 9 14.19 1.68
-1 4 9 16.36 1.85
-1 4 8 35.11 1.39
-1 4 8 36.66 1.77
-1 4 8 35.04 1.22
-1 4 8 34.44 1.33
-1 4 7 2.73 0.86
-1 4 7 1.85 0.88
-1 4 7 3.46 1.11
-1 4 7 1.93 1.26
-1 4 6 143.92 2.48
-1 4 6 132.84 2.35
-1 4 6 137.29 2.26
-1 4 6 138.79 3.05
-1 4 5 118.07 1.99
-1 4 5 113.06 1.88
-1 4 5 111.5 2.11
-1 4 5 115.24 2.37
1 -4 -4 320.26 4.93
1 -4 -4 322.95 5.37
-1 4 4 327.43 4.83
-1 4 4 319.94 5.03
1 -4 -3 253.4 3.7
1 -4 -3 257.13 4.02
-1 4 3 254.58 3.31
-1 4 3 258.94 3.75
1 -4 -2 158.57 2.24
1 -4 -2 153.11 2.08
-1 4 2 156.03 2.12
-1 4 2 153.42 2.18
1 -4 -1 49.1 0.99
1 -4 -1 49.3 1.07
-1 4 1 48.19 0.94
-1 4 1 49.3 0.98
1 -4 0 1253.03 25.82
1 -4 0 1243.25 26.34
-1 4 0 1263.38 26.05
-1 4 0 1262.6 26.46
1 -4 1 110.12 1.42
1 -4 1 110.11 1.71
-1 4 -1 112.35 1.7
-1 4 -1 110.55 1.68
1 -4 2 74.9 1.34
1 -4 2 71.34 1.34
-1 4 -2 74.15 1.11
-1 4 -2 71.99 1.1
1 -4 3 678.27 11.99
1 -4 3 680.7 12.25
-1 4 -3 684.93 12.39
-1 4 -3 677.53 12.26
1 -4 4 263.41 3.76
1 -4 4 265.85 3.94
-1 4 -4 276.25 4.58
-1 4 -4 268.26 4.45
1 -4 5 342.23 5.75
1 -4 5 350.57 6.22
-1 4 -5 346.8 6.28
-1 4 -5 352.82 6.35
1 -4 6 116.5 1.9
1 -4 6 119.6 2.68
-1 4 -6 117.24 2.7
-1 4 -6 112.77 2.74
1 -4 7 11.9 0.78
1 -4 7 13.24 1.44
-1 4 -7 13.05 0.99
-1 4 -7 13.08 1.04
1 -4 8 118.88 2.29
1 -4 8 123.26 3.44
-1 4 -8 122.39 3.57
-1 4 -8 132.19 3.72
1 -4 9 26.87 1.63
1 -4 9 27.52 2.1
-1 4 -9 27.44 2.32
-1 4 -9 25.66 2.48
1 -4 10 10.09 1.5
1 -4 10 6.71 1.97
-1 4 -10 8.66 2.21
-1 4 -10 9.87 1.46
1 -4 11 8 1.6
1 -4 11 4.17 1.33
-1 4 -11 5.51 2.4
-1 4 -11 6.85 1.6
1 -4 12 4 1.66
1 -4 12 1.6 2.21
-1 4 -12 2.17 2.6
-1 4 -12 1.01 1.78
-1 3 12 9.05 1.5
-1 3 12 9.06 1.86
-1 3 12 9.05 2.16
-1 3 12 9.19 2.24
-1 3 11 10.71 1.41
-1 3 11 13.06 1.68
-1 3 11 14.72 2.02
-1 3 11 10.66 2.07
-1 3 10 24.9 1.47
-1 3 10 22.02 1.66
-1 3 10 22.24 1.35
-1 3 10 20.23 1.36
-1 3 9 76.69 2.05
-1 3 9 72.57 2.2
-1 3 9 76.87 2.56
-1 3 9 76.76 2.62
-1 3 8 43.39 1.45
-1 3 8 44.44 1.57
-1 3 8 46.12 1.83
-1 3 8 43.88 1.37
-1 3 7 161.14 2.82
-1 3 7 159.32 2.94
-1 3 7 160.48 3.2
-1 3 7 161.53 3.36
-1 3 6 0.53 0.47
-1 3 6 2.41 0.75
-1 3 6 0.81 0.86
-1 3 6 1.31 0.94
-1 3 5 37.38 0.76
-1 3 5 36.21 1.02
-1 3 5 37.39 0.82
-1 3 5 39.1 1.22
-1 3 4 15.46 0.5
-1 3 4 14.71 0.7
-1 3 4 16.25 0.74
-1 3 4 15.86 0.83
1 -3 -3 62.89 1.1
1 -3 -3 59.68 0.93
-1 3 3 58 1.01
-1 3 3 60.19 1.06
1 -3 -2 300.62 4.06
1 -3 -2 307.96 4.2
-1 3 2 305.64 4.04
-1 3 2 300.75 3.94
1 -3 -1 17.71 0.62
1 -3 -1 18.94 0.61
-1 3 1 17.03 0.57
-1 3 1 18.05 0.55
1 -3 0 2243.34 60.2
1 -3 0 2217.76 59.55
-1 3 0 2249.27 60.38
-1 3 0 2229.86 59.03
1 -3 1 19.6 0.64
1 -3 1 20.12 0.65
-1 3 -1 21.78 0.65
-1 3 -1 20.33 0.66
1 -3 2 234.66 2.88
1 -3 2 231.96 2.92
-1 3 -2 237.26 3.23
-1 3 -2 233 2.95
1 -3 3 5.94 0.4
1 -3 3 4.59 0.69
-1 3 -3 5.4 0.67
-1 3 -3 5.15 0.71
1 -3 4 38.59 0.75
1 -3 4 37.32 0.85
-1 3 -4 36 1.13
-1 3 -4 37.12 1.19
1 -3 5 272.11 3.85
1 -3 5 277.38 4.26
-1 3 -5 280.6 4.76
-1 3 -5 274.54 4.25
1 -3 6 85.66 1.79
1 -3 6 83.58 1.64
-1 3 -6 82.69 1.6
-1 3 -6 84.76 2.25
1 -3 7 190.49 3.44
1 -3 7 191.18 3.34
-1 3 -7 190.52 4
-1 3 -7 179.67 3.35
1 -3 8 26.84 1.33
1 -3 8 24.91 1.21
-1 3 -8 26.85 1.88
-1 3 -8 26.92 2.05
1 -3 9 46.92 1.34
1 -3 9 51.9 2.46
-1 3 -9 53.6 2.48
-1 3 -9 44.19 2.67
1 -3 10 19.53 1.61
1 -3 10 21.67 2.2
-1 3 -10 24.49 2.3
-1 3 -10 20.28 2.44
1 -3 11 22.37 1.76
1 -3 11 18.02 2.46
-1 3 -11 22.69 2.58
-1 3 -11 24.02 2.87
1 -3 12 12.34 1.75
1 -3 12 10.36 2.56
-1 3 -12 12.89 2.75
-1 3 -12 11.73 3.05
-1 2 12 7.96 1.56
-1 2 12 9.9 1.98
-1 2 12 8.44 1.42
-1 2 12 7.29 2.02
-1 2 11 12.76 1.49
-1 2 11 14.46 1.85
-1 2 11 14.19 1.35
-1 2 11 12.96 1.94
-1 2 10 14.78 1.32
-1 2 10 13.32 1.63
-1 2 10 14.54 1.79
-1 2 10 13.83 1.71
-1 2 9 62.97 1.92
-1 2 9 65.03 2.19
-1 2 9 67.08 2.34
-1 2 9 60.78 2.31
-1 2 8 86.58 1.99
-1 2 8 88.2 2.24
-1 2 8 85.53 2.35
-1 2 8 87.73 2.35
-1 2 7 73.88 1.67
-1 2 7 72.74 1.84
-1 2 7 73.55 1.89
-1 2 7 77.45 1.98
-1 2 6 287.18 4.56
-1 2 6 282.11 4.65
-1 2 6 286.07 4.79
-1 2 6 277.94 4.76
-1 2 5 448.29 7.04
-1 2 5 436.49 7.05
-1 2 5 450.82 7.24
-1 2 5 421.86 6.59
-1 2 4 455.62 6.92
-1 2 4 462.02 6.75
-1 2 4 454.89 6.56
-1 2 4 461.16 7.08
-1 2 3 95.94 1.4
-1 2 3 94.88 1.4
-1 2 3 91.36 1.25
-1 2 3 90.68 1.32
1 -2 -2 73.25 1.07
1 -2 -2 71.55 0.96
-1 2 2 71.53 1.06
-1 2 2 71.99 0.9
1 -2 -1 36.56 0.67
1 -2 -1 36.5 0.57
-1 2 1 35.9 0.66
-1 2 1 36.29 0.53
1 -2 0 1127.89 20.72
1 -2 0 1114.49 20.39
-1 2 0 1135.37 21.08
-1 2 0 1123.27 20.28
1 -2 1 187.8 2.04
1 -2 1 190.65 2.1
-1 2 -1 187.42 2.06
1 -2 2 298.07 3.79
1 -2 2 298.99 4.01
-1 2 -2 295.37 3.85
-1 2 -2 293.67 3.71
1 -2 3 107.57 1.29
1 -2 3 108.04 1.45
-1 2 -3 105.57 1.35
-1 2 -3 105.64 1.72
1 -2 4 452.07 6.79
1 -2 4 436.82 7.16
-1 2 -4 446.18 7.06
-1 2 -4 457.17 7.54
1 -2 5 108.43 1.77
1 -2 5 100.67 1.67
-1 2 -5 105.53 1.96
-1 2 -5 100.6 2.13
1 -2 6 97.04 1.77
1 -2 6 91.99 2.2
-1 2 -6 92.34 2.05
-1 2 -6 96.13 2.36
1 -2 7 14.3 0.98
-1 2 -7 14.19 1.28
-1 2 -7 13.87 1.45
1 -2 8 38.27 1.39
1 -2 8 33.44 1.97
-1 2 -8 35.78 1.8
-1 2 -8 36.12 2.07
1 -2 9 37.38 1.09
1 -2 9 39.9 1.52
-1 2 -9 34.65 2.14
-1 2 -9 38.42 2.49
1 -2 10 9.75 1.31
1 -2 10 11.2 1.95
-1 2 -10 11.28 1.89
-1 2 -10 10.39 2.21
1 -2 11 16.36 1.6
1 -2 11 18.07 2.28
-1 2 -11 15.76 2.31
-1 2 -11 15.21 1.79
1 -2 12 5.78 1.52
1 -2 12 6.94 2.35
-1 2 -12 7.36 2.39
-1 2 -12 9.66 2.84
-1 1 12 10.56 1.64
-1 1 12 13.56 2.04
1 -1 -11 16.66 1.95
1 -1 -11 16.9 2.09
-1 1 11 16.1 1.57
-1 1 11 15.63 1.89
1 -1 -10 26.92 1.31
1 -1 -10 28.95 2.01
-1 1 10 27.77 1.58
-1 1 10 28.72 1.29
1 -1 -9 27.15 1.16
1 -1 -9 28.17 1.75
-1 1 9 27.8 1.39
-1 1 9 26.19 1.67
1 -1 -8 52.37 1.82
1 -1 -8 55.15 1.85
-1 1 8 51.79 1.58
-1 1 8 52.91 1.77
1 -1 -7 16.13 1.14
1 -1 -7 13.57 1.1
-1 1 7 14.49 0.98
-1 1 7 14.76 0.73
1 -1 -6 36.68 1.22
1 -1 -6 37.24 1.17
-1 1 6 37.39 1.16
-1 1 6 35.81 0.83
1 -1 -5 358.56 5.65
1 -1 -5 355.51 5.06
-1 1 5 362.67 5.52
-1 1 5 349.76 5.33
1 -1 -4 818.58 14.86
1 -1 -4 819.26 14.38
-1 1 4 845.01 15.09
-1 1 4 811.01 14.47
1 -1 -3 3582.14 125.36
1 -1 -3 3468.51 118.51
-1 1 3 3512.26 122.5
-1 1 3 3635.1 124.14
-1 1 2 660.71 9.93
-1 1 2 667.91 10.36
-1 1 2 663.13 9.38
-1 1 2 676.02 9.64
1 -1 -1 905.79 15.13
-1 1 1 897.88 14.78
-1 1 1 908.7 13.83
1 -1 0 86.87 0.84
1 -1 0 90.11 0.86
-1 1 0 86.15 0.93
-1 1 0 89.34 0.86
1 -1 1 30.35 0.47
1 -1 1 29.61 0.56
-1 1 -1 29.19 0.37
-1 1 -1 31.52 0.58
1 -1 2 801.02 12.6
1 -1 2 818.22 13.6
-1 1 -2 808.17 13.11
-1 1 -2 804.81 13.8
1 -1 3 405.55 5.22
1 -1 3 414.83 5.85
-1 1 -3 399.41 5.58
-1 1 -3 413.21 6.21
1 -1 4 479.81 6.75
1 -1 4 476.27 7.39
-1 1 -4 472.96 7
-1 1 -4 487.81 8.12
1 -1 5 140.69 2.02
1 -1 5 134.26 2.55
-1 1 -5 139.05 2.22
-1 1 -5 141.06 2.6
1 -1 6 255.02 3.51
1 -1 6 254.53 4.14
-1 1 -6 248.82 3.74
-1 1 -6 255.98 4.74
1 -1 7 56.3 1.33
1 -1 7 52.63 1.44
-1 1 -7 53.43 1.68
-1 1 -7 55.54 2
1 -1 8 32.49 0.87
1 -1 8 31.39 1.29
-1 1 -8 33.42 1.63
-1 1 -8 33.16 2.05
1 -1 9 0.59 0.99
1 -1 9 2.1 1.02
-1 1 -9 4.15 1.37
-1 1 -9 1.86 1.78
1 -1 10 25.08 1.45
1 -1 10 24.1 1.51
-1 1 -10 25.86 1.36
-1 1 -10 29.32 2.53
1 -1 11 7.36 1.32
1 -1 11 8.76 2.13
-1 1 -11 6.38 1.93
-1 1 -11 10.76 2.48
1 -1 12 10.48 1.59
1 -1 12 13.26 2.5
-1 1 -12 9.65 2.22
-1 1 -12 10.62 2.86
1 0 -12 5.09 1.35
1 0 -12 5.08 2.11
-1 0 12 4.82 1.03
-1 0 12 5.62 1.89
1 0 -11 11.34 2.01
1 0 -11 10.96 1.98
-1 0 11 13.13 1.02
-1 0 11 11.74 1.76
1 0 -10 -0.71 1.55
1 0 -10 1.75 1.52
-1 0 10 0.46 1.21
-1 0 10 2.77 1.32
1 0 -9 122.02 3.36
1 0 -9 124.88 3.3
-1 0 9 126.94 2.92
-1 0 9 126.31 3.06
1 0 -8 11.94 1.34
1 0 -8 13.19 1.29
-1 0 8 14.19 1.13
-1 0 8 12.27 0.77
1 0 -7 73.88 1.92
1 0 -7 68.8 1.77
-1 0 7 72.49 1.7
-1 0 7 72.54 1.33
1 0 -6 69.44 1.72
1 0 -6 70.93 1.53
-1 0 6 70.77 1.53
1 0 -5 292.13 4.59
1 0 -5 293.45 4.29
-1 0 5 295.18 4.08
-1 0 5 285.84 4.14
1 0 -4 0.61 0.41
1 0 -4 1.55 0.46
-1 0 4 2.08 0.6
-1 0 4 1.59 0.43
1 0 -3 87.96 1.37
1 0 -3 86.29 1.06
-1 0 3 89.42 1.34
-1 0 3 86.53 1.04
1 0 -2 221.28 2.75
1 0 -2 228.11 2.34
-1 0 2 226.76 2.57
-1 0 2 229.55 2.26
1 0 1 1822.94 40.64
1 0 1 1922.04 45.71
-1 0 -1 1821.43 40.55
-1 0 -1 1929.46 45.79
1 0 2 1720.23 37.66
1 0 2 1706.9 40.09
-1 0 -2 1732.15 38.34
-1 0 -2 1695.09 40.39
1 0 3 1519.64 32.48
1 0 3 1553.95 35.88
-1 0 -3 1561.47 33.9
-1 0 -3 1532.3 36.09
1 0 4 394.03 5.23
1 0 4 390.34 6.33
-1 0 -4 397.2 5.56
-1 0 -4 389.6 6.36
1 0 5 194.65 2.53
1 0 5 187.71 2.92
-1 0 -5 199.04 2.82
-1 0 -5 190.42 2.94
1 0 6 113.47 1.73
1 0 6 111.81 2.56
-1 0 -6 114.06 2.01
-1 0 -6 108.65 2.03
1 0 7 111.64 1.86
1 0 7 112.18 2.22
-1 0 -7 112.48 2.23
-1 0 -7 107.16 2.21
1 0 8 43.11 1.24
1 0 8 43.48 2.12
-1 0 -8 45.39 1.63
-1 0 -8 47.21 1.6
1 0 9 123.53 2.52
1 0 9 119.95 3.81
-1 0 -9 125.14 3.07
-1 0 -9 125.21 4.03
1 0 10 2.15 1.05
1 0 10 5.11 1.86
-1 0 -10 1.6 1.41
-1 0 -10 4.52 1.98
1 0 11 11.92 1.34
1 0 11 15.31 2.3
-1 0 -11 12.77 1.83
-1 0 -11 13.9 2.56
1 0 12 1.67 1.27
1 0 12 0.43 1.39
-1 0 -12 1.75 1.79
-1 0 -12 -0.81 1.62
1 1 -12 19.28 2.56
1 1 -12 18.77 1.67
-1 -1 12 14.68 1.86
-1 -1 12 19.89 2.11
1 1 -11 5.85 2.01
1 1 -11 8.89 1.97
-1 -1 11 8.23 1.5
-1 -1 11 6.93 1.65
1 1 -10 29.77 2.18
1 1 -10 28.45 2.08
-1 -1 10 28.31 1.73
-1 -1 10 29.02 1.81
1 1 -9 7.36 1.65
1 1 -9 8.13 1.5
-1 -1 9 9.57 1.29
-1 -1 9 8.44 1.35
1 1 -8 61.86 2.17
1 1 -8 58.9 1.92
-1 -1 8 60.83 1.74
-1 -1 8 61.62 1.8
1 1 -7 48.28 1.67
1 1 -7 43.28 1.44
-1 -1 7 43.94 1.4
-1 -1 7 43.84 1.37
1 1 -6 456.28 7.69
1 1 -6 468.15 8.04
-1 -1 6 459.86 7.86
-1 -1 6 456.36 7.63
1 1 -5 96.91 1.56
1 1 -5 101.83 1.64
-1 -1 5 103.4 1.82
-1 -1 5 101.12 1.35
1 1 -4 100.14 1.77
1 1 -4 101.63 1.42
-1 -1 4 99.64 1.36
-1 -1 4 105.07 1.41
1 1 -3 182.29 2.3
1 1 -3 180.6 1.96
-1 -1 3 185.23 2.46
-1 -1 3 185.82 2.14
1 1 -2 0.08 0.48
-1 -1 2 -0.16 0.44
1 1 -1 415.09 5.34
1 1 -1 415.87 4.99
-1 -1 1 420.9 5.33
-1 -1 1 426.05 5.18
1 1 0 7.72 0.24
-1 -1 0 7.38 0.21
-1 -1 0 7.83 0.39
1 1 1 406.73 5.28
1 1 1 397.14 5.45
1 1 2 1658.67 34.38
1 1 2 1665.61 40.14
-1 -1 -2 1752.11 41.8
1 1 3 854.52 13.48
1 1 3 869.12 16.62
-1 -1 -3 890.37 14.56
-1 -1 -3 884.15 16.77
1 1 4 302.16 3.59
1 1 4 303.09 4.96
-1 -1 -4 317.77 4.14
-1 -1 -4 311.94 5.04
1 1 5 58.85 0.87
1 1 5 57.14 1.25
-1 -1 -5 59.68 1.2
-1 -1 -5 53.99 1.6
1 1 6 163.22 2.21
1 1 6 156.88 3.47
-1 -1 -6 160.35 2.75
1 1 7 42.64 0.97
1 1 7 36.46 1.91
-1 -1 -7 43.49 1.46
-1 -1 -7 43.77 1.92
1 1 8 88.58 1.69
1 1 8 90.15 2.16
-1 -1 -8 89.75 2.01
-1 -1 -8 85.24 2.19
1 1 9 33.71 1.22
1 1 9 31.19 2.33
-1 -1 -9 33.57 1.51
-1 -1 -9 37.43 2.4
1 1 10 35.84 1.76
1 1 10 38.87 2.58
-1 -1 -10 33.62 1.71
-1 -1 -10 37.6 2.74
1 1 11 12.29 1.21
1 1 11 12.47 2.39
-1 -1 -11 11.97 2.17
-1 -1 -11 17.32 2.63
1 1 12 5.72 1.72
1 1 12 6.47 2.43
1 2 -12 8.69 2.46
1 2 -12 9.26 1.56
-1 -2 12 11.16 1.8
-1 -2 12 9.87 1.91
1 2 -11 13.7 2.3
1 2 -11 11.3 1.38
-1 -2 11 12.6 1.66
-1 -2 11 11.88 1.82
1 2 -10 33.75 1.64
1 2 -10 33.51 2.16
-1 -2 10 33.94 1.89
-1 -2 10 30.72 1.33
1 2 -9 140.3 3.97
1 2 -9 144.03 3.69
-1 -2 9 141.23 3.36
-1 -2 9 145.59 3.41
1 2 -8 59.83 2.29
1 2 -8 56.59 1.45
-1 -2 8 56.98 1.34
-1 -2 8 60.4 1.8
1 2 -7 79.89 1.74
1 2 -7 81.39 1.93
-1 -2 7 79.87 1.49
-1 -2 7 83 1.84
1 2 -6 388.75 7.03
1 2 -6 378.91 5.87
-1 -2 6 373.76 5.83
-1 -2 6 381.58 6.24
1 2 -5 110.9 1.81
1 2 -5 109.56 1.56
-1 -2 5 115.75 2.07
-1 -2 5 109.98 1.77
1 2 -4 215.16 3.39
1 2 -4 218.82 2.98
-1 -2 4 221.08 3.21
-1 -2 4 223.3 2.94
1 2 -3 83.19 1.47
1 2 -3 81.16 1.15
-1 -2 3 79.82 1.33
-1 -2 3 82.4 1.14
1 2 -2 661.48 10.36
1 2 -2 660.21 10.08
-1 -2 2 668.5 10.61
-1 -2 2 666.78 10.24
1 2 -1 2280.66 60.1
1 2 -1 2235.31 59.13
-1 -2 1 2236.44 58.95
-1 -2 1 2263.11 60.28
1 2 0 1889.6 43.49
1 2 0 1771.37 42.36
-1 -2 0 1844.78 42.02
-1 -2 0 1832.03 44.51
1 2 1 1067.44 17.75
1 2 1 1070.79 20.44
-1 -2 -1 1002.84 16.45
-1 -2 -1 1070.19 20.68
1 2 2 150.54 1.19
1 2 2 150.55 2.26
1 2 2 147.79 2
1 2 3 139.96 1.34
1 2 3 139.58 1.31
1 2 3 145.34 2.39
1 2 3 141.76 2.07
1 2 4 167.6 1.81
1 2 4 170.88 1.95
1 2 4 177.85 3.06
1 2 4 166.88 3.07
1 2 5 91.92 1.21
1 2 5 90.76 1.19
1 2 5 91.33 1.66
1 2 5 89.37 2.21
1 2 6 323.58 4.55
1 2 6 318.21 6.43
1 2 7 7.21 0.73
1 2 7 8.57 1
1 2 8 108.12 2.08
1 2 8 106.76 2.03
1 2 8 101.6 2.48
1 2 9 19.53 1.22
1 2 9 20.41 1.19
1 2 9 22.51 2.17
1 2 9 20.57 1.45
1 2 10 4.32 1.19
1 2 10 5.08 1.15
1 2 10 2.67 1.36
1 2 10 4.85 1.35
1 2 11 5.79 2.48
1 2 11 5.77 1.47
1 3 -12 10.42 1.78
1 3 -12 14.77 1.63
-1 -3 12 12.69 1.94
1 3 -11 8.5 2.28
1 3 -11 8.61 2.05
-1 -3 11 7.22 1.67
-1 -3 11 7.02 1.69
1 3 -10 37.88 2.63
1 3 -10 37.01 2.35
-1 -3 10 36.66 2.02
-1 -3 10 37.14 1.98
1 3 -9 55.46 1.92
1 3 -9 55.81 1.71
-1 -3 9 56.19 2.16
-1 -3 9 56.94 2.05
1 3 -8 6.72 1.56
1 3 -8 4.85 0.81
-1 -3 8 5.62 1.19
-1 -3 8 4.2 1.13
1 3 -7 232.33 4.9
1 3 -7 221.74 3.64
-1 -3 7 227.34 4.22
-1 -3 7 231.68 4.13
1 3 -6 184.14 3.8
1 3 -6 193.93 3.33
-1 -3 6 187.58 2.88
-1 -3 6 189.71 3.17
1 3 -5 343.27 5.52
1 3 -5 346.78 5.09
-1 -3 5 346.86 5.66
-1 -3 5 356.77 5.49
1 3 -4 228.7 3.35
1 3 -4 238.94 3.45
-1 -3 4 236.57 3.26
-1 -3 4 234.28 3.36
1 3 -3 607.06 9.94
1 3 -3 607.93 9.78
-1 -3 3 610.81 10.07
-1 -3 3 616.68 9.97
1 3 -2 1119.49 22.04
1 3 -2 1101.29 21.25
-1 -3 2 1125.94 21.82
-1 -3 2 1110.08 21.6
1 3 -1 895.94 15.86
1 3 -1 891.89 15.91
-1 -3 1 880.8 15.3
-1 -3 1 866.44 15.39
1 3 0 612.76 9.05
1 3 0 598.49 9.28
-1 -3 0 612.36 8.83
-1 -3 0 619.32 10.16
1 3 1 357.82 4.22
1 3 1 352.77 4.86
-1 -3 -1 360.24 4.16
-1 -3 -1 346.16 4.94
1 3 2 329.8 3.59
1 3 2 325.36 4.99
-1 -3 -2 317.29 3.65
-1 -3 -2 312.88 4.62
1 3 3 259.16 2.78
1 3 3 263.75 2.69
1 3 3 262.15 3.81
1 3 3 262.8 4.51
1 3 4 70.44 0.81
1 3 4 71.27 0.78
1 3 4 73.12 1.35
1 3 4 68.45 1.45
1 3 5 180.03 2.1
1 3 5 179.2 2.11
1 3 5 182.29 3.64
1 3 5 180.95 3.86
1 3 6 56.78 0.83
1 3 6 55.74 1.02
1 3 6 54.4 1.47
1 3 6 53.5 2.15
1 3 7 79.32 1.47
1 3 7 83.53 2.72
1 3 7 76.13 2.02
1 3 8 62.38 1.14
1 3 8 63.12 1.3
1 3 8 64.64 2.86
1 3 8 63.48 2.87
1 3 9 19.71 1.05
1 3 9 23.48 2.28
1 3 9 23.31 2.33
1 3 10 10.2 2.27
1 3 10 9.03 2.3
1 3 11 4.42 2.32
1 3 11 1 1.51
1 4 -12 5.53 2.65
1 4 -12 4.28 2.35
-1 -4 12 2.97 1.18
-1 -4 12 2.54 1.93
1 4 -11 7.39 2.39
1 4 -11 3.16 1.33
-1 -4 11 3.24 1.07
-1 -4 11 6.26 1.72
1 4 -10 54.57 3.13
-1 -4 10 53.51 1.69
-1 -4 10 57.97 2.42
1 4 -9 40.77 1.78
1 4 -9 40.59 2.18
-1 -4 9 37.02 1.34
-1 -4 9 43.04 1.88
1 4 -8 75.32 2.86
1 4 -8 75.57 2.4
-1 -4 8 73.98 2.24
-1 -4 8 73.36 1.63
1 4 -7 10.08 1.58
1 4 -7 9.62 1.26
-1 -4 7 9.14 0.8
-1 -4 7 9.18 0.73
1 4 -6 100.28 2.64
1 4 -6 94.5 2.11
-1 -4 6 92.24 1.67
-1 -4 6 99.3 2.01
1 4 -5 68.57 1.47
1 4 -5 72.14 1.59
-1 -4 5 69.02 1.26
-1 -4 5 73.37 1.23
1 4 -4 142.54 2.28
1 4 -4 150.29 2.42
-1 -4 4 142.3 2.4
-1 -4 4 148.42 2.06
1 4 -3 627.66 10.72
1 4 -3 635.33 10.43
-1 -4 3 633.55 10.93
-1 -4 3 639.88 10.53
1 4 -2 250.97 3.4
1 4 -2 258.19 3.7
-1 -4 2 259.69 3.64
-1 -4 2 255.42 3.81
1 4 -1 717 12.11
1 4 -1 699.51 11.69
-1 -4 1 693.29 11.49
-1 -4 1 689.87 11.83
1 4 0 579.45 9.02
1 4 0 609.46 10.14
-1 -4 0 586.78 8.85
-1 -4 0 600.17 10.42
1 4 1 354.06 4.69
1 4 1 350.5 5.45
-1 -4 -1 346.65 4.35
-1 -4 -1 340.43 5.61
1 4 2 51.96 0.73
1 4 2 50.33 1.3
-1 -4 -2 48.5 0.66
-1 -4 -2 50.03 1.51
1 4 3 362.35 4.3
1 4 3 344.7 5.94
-1 -4 -3 342.16 4.33
-1 -4 -3 340.78 5.62
1 4 4 80.81 0.99
1 4 4 82.52 0.9
1 4 4 81 2.06
1 4 4 77.99 1.67
1 4 5 143.44 1.69
1 4 5 145.57 1.61
1 4 5 141.45 2.55
1 4 5 148.72 3.57
1 4 6 70.38 1
1 4 6 73.75 1
1 4 6 72.84 1.74
1 4 6 73.57 2.63
1 4 7 3.59 1.56
1 4 7 1.39 1.72
1 4 8 77.83 2.23
1 4 8 76.75 2.38
1 4 9 1.39 1.22
1 4 9 2.5 2.12
1 4 10 14.27 2.38
1 4 10 8.58 2.56
1 4 11 4.92 2.47
1 4 11 6.3 1.68
1 5 -12 18.05 3.26
1 5 -12 18.43 2.83
-1 -5 12 14.77 2.31
-1 -5 12 15.8 1.51
1 5 -11 6.82 1.69
1 5 -11 7.32 2.29
-1 -5 11 5.9 1.87
-1 -5 11 4.56 1.18
1 5 -10 22.97 2.76
1 5 -10 23.79 1.54
-1 -5 10 26.57 1.97
-1 -5 10 22.5 1.31
1 5 -9 26.05 2.51
1 5 -9 27.26 2.08
-1 -5 9 23.84 1.29
-1 -5 9 25.14 1.76
1 5 -8 9.59 1.95
1 5 -8 9.57 1.04
-1 -5 8 10.79 1.49
-1 -5 8 13.23 1.38
1 5 -7 219.33 4.33
1 5 -7 223.88 4.68
-1 -5 7 223.15 4.67
-1 -5 7 230.99 4.61
1 5 -6 153.04 3.64
1 5 -6 154.09 2.62
-1 -5 6 150.32 3.19
-1 -5 6 150.08 2.48
1 5 -5 166.91 3.52
1 5 -5 162.75 2.58
-1 -5 5 162.11 3.04
-1 -5 5 162.48 3.01
1 5 -4 150.54 2.98
1 5 -4 148.52 2.64
-1 -5 4 156.04 2.67
-1 -5 4 147.56 2.23
1 5 -3 146.78 2.23
1 5 -3 144.22 2.05
-1 -5 3 145.38 2.07
-1 -5 3 147.09 2.58
1 5 -2 95.28 1.48
1 5 -2 95.91 1.44
-1 -5 2 96.42 1.37
-1 -5 2 100.15 1.96
1 5 -1 179.12 2.67
1 5 -1 180.58 2.52
-1 -5 1 183.14 2.58
-1 -5 1 178.5 2.66
1 5 0 76.16 1.28
1 5 0 78.96 1.61
-1 -5 0 78.58 1.22
-1 -5 0 80.25 1.88
1 5 1 311.81 4.25
1 5 1 310.43 5.14
-1 -5 -1 312.2 4.17
-1 -5 -1 315.38 5.6
1 5 2 272.83 3.61
1 5 2 259.96 4.01
-1 -5 -2 265.94 4.4
1 5 3 397.73 5.35
1 5 3 379.05 6.98
-1 -5 -3 391.3 5.33
-1 -5 -3 391.48 6.9
1 5 4 101.12 1.37
1 5 4 103.31 1.25
1 5 4 98.93 1.94
1 5 4 99.25 2.15
1 5 5 127.1 1.61
1 5 5 130.41 1.49
1 5 5 135.88 3.25
1 5 5 133.74 3.56
1 5 6 10.46 1.61
1 5 6 11.19 1.87
1 5 7 94.02 3.21
1 5 7 91.3 3.62
1 5 8 18.63 2.16
1 5 8 17.47 2.47
1 5 9 11.64 2.22
1 5 9 14.18 2.47
1 5 10 3.71 2.23
1 5 10 2.14 2.5
1 6 -11 16.04 3.14
1 6 -11 15.08 2.61
-1 -6 11 14.6 1.43
-1 -6 11 15.48 2.24
1 6 -10 34.18 2.22
1 6 -10 36.95 1.89
-1 -6 10 34.38 2.49
-1 -6 10 37.9 2.42
1 6 -9 13.33 2.46
1 6 -9 8.57 1.32
-1 -6 9 11.93 1.15
-1 -6 9 11.35 1.73
1 6 -8 56.34 3.11
1 6 -8 53.39 1.71
-1 -6 8 59.89 2.35
-1 -6 8 57.11 2.26
1 6 -7 6.64 1.22
1 6 -7 8.8 1.48
-1 -6 7 7.64 1.43
-1 -6 7 7.63 1.35
1 6 -6 54.96 2.35
1 6 -6 54.78 1.93
-1 -6 6 49.54 1.36
-1 -6 6 51.33 1.32
1 6 -5 90 2.63
1 6 -5 93.53 2.21
-1 -6 5 87.93 2.2
-1 -6 5 86.16 2.23
1 6 -4 130.41 2.42
1 6 -4 135.53 2.69
-1 -6 4 133.58 2.59
-1 -6 4 138.19 2.83
1 6 -3 488.14 9.13
1 6 -3 490.59 8.82
-1 -6 3 473.45 7.8
-1 -6 3 479.89 8.29
1 6 -2 143.23 2.65
1 6 -2 140.48 2.59
-1 -6 2 141.88 2.05
-1 -6 2 141.23 2.89
1 6 -1 186.46 3.07
1 6 -1 183.02 2.77
-1 -6 1 184.23 2.81
-1 -6 1 189.33 3.05
1 6 0 258.97 3.66
1 6 0 257.36 4.52
-1 -6 0 277.2 4.02
-1 -6 0 270.12 4.47
1 6 1 8.93 0.62
1 6 1 7.21 0.7
-1 -6 -1 8.3 0.6
-1 -6 -1 8.88 0.84
1 6 2 79.44 1.28
1 6 2 76.54 1.54
-1 -6 -2 76.71 1.48
-1 -6 -2 80.12 1.8
1 6 3 133.82 1.96
1 6 3 130.97 2.94
-1 -6 -3 128.17 1.83
-1 -6 -3 130.93 2.69
1 6 4 37.27 0.69
1 6 4 39.83 1.82
1 6 5 161.71 2.02
1 6 5 161.78 1.88
1 6 5 169.38 4.02
1 6 5 161.59 3.53
1 6 6 21.66 1.93
1 6 6 21.53 1.54
1 6 7 71.73 3.03
1 6 7 69.17 2.45
1 6 8 15.39 2.27
1 6 8 18.98 2.71
1 6 9 7.83 1.49
1 6 9 10.25 2.61
1 7 -11 9.12 2.05
1 7 -11 11.41 2.62
-1 -7 11 6.03 2.15
-1 -7 11 5.44 1.41
1 7 -10 28.12 3.28
1 7 -10 25.88 1.8
-1 -7 10 24.23 1.59
-1 -7 10 28.75 2.42
1 7 -9 15.74 2.8
1 7 -9 17.64 2.25
-1 -7 9 14.87 1.96
-1 -7 9 17.53 1.36
1 7 -8 51.15 2.28
1 7 -8 60.45 2.7
-1 -7 8 58.58 2.49
-1 -7 8 57.27 1.77
1 7 -7 55.51 2.92
1 7 -7 56.31 2.49
-1 -7 7 57.9 2.3
-1 -7 7 55.7 2.36
1 7 -6 128.54 3.89
1 7 -6 132.21 2.65
-1 -7 6 126.75 2.5
-1 -7 6 135.52 3.38
1 7 -5 1.43 1.45
1 7 -5 1.41 1.27
-1 -7 5 1.17 1.15
-1 -7 5 1.01 1.27
1 7 -4 84.61 2.48
1 7 -4 77.66 1.68
-1 -7 4 80.67 1.59
-1 -7 4 82.2 1.77
1 7 -3 18.69 0.93
1 7 -3 18.19 1.29
-1 -7 3 16.6 1.14
-1 -7 3 16.8 0.99
1 7 -2 88.57 2.14
1 7 -2 84 2.13
-1 -7 2 86.36 1.88
-1 -7 2 85.81 1.83
1 7 -1 236.07 3.69
1 7 -1 238.69 4.5
-1 -7 1 239 3.97
-1 -7 1 242.99 5.02
1 7 0 74.66 1.68
1 7 0 70.97 1.48
-1 -7 0 71.41 1.49
-1 -7 0 73.86 2.43
1 7 1 72.08 1.49
1 7 1 67.05 1.54
-1 -7 -1 73.1 1.48
-1 -7 -1 69.71 2.45
1 7 2 124.93 2.03
1 7 2 127.65 2.95
-1 -7 -2 128.08 2.1
-1 -7 -2 135.35 3.59
1 7 3 29.73 0.85
1 7 3 31.63 1.18
-1 -7 -3 30.5 0.93
-1 -7 -3 30.22 2.17
1 7 4 69.63 1.2
1 7 4 71.14 2.47
-1 -7 -4 70.13 1.32
-1 -7 -4 74.03 3.04
1 7 5 0.76 0.6
1 7 5 0.14 0.54
1 7 5 -0.31 1.49
1 7 5 -1.35 1.88
1 7 6 41.57 2.43
1 7 6 43.79 3.01
1 7 7 20.8 2.21
1 7 7 18.21 2.76
1 7 8 20.48 2.42
1 7 8 17.82 3
1 7 9 7.25 2.27
1 7 9 2.97 1.81
1 8 -10 -0.91 2.91
1 8 -10 -1.38 2.3
-1 -8 10 0.64 1.97
-1 -8 10 2.54 1.99
1 8 -9 12.46 1.89
1 8 -9 10.55 1.52
-1 -8 9 15.65 2.08
-1 -8 9 12.26 2.12
1 8 -8 14.35 2.71
1 8 -8 16.38 2.17
-1 -8 8 11.85 1.96
-1 -8 8 13.18 2.01
1 8 -7 35.16 1.9
1 8 -7 33.91 2.28
-1 -8 7 33.15 2.15
-1 -8 7 35 2.28
1 8 -6 67.47 3
1 8 -6 63.19 1.9
-1 -8 6 64.81 2.42
-1 -8 6 63.71 1.87
1 8 -5 128.49 2.96
1 8 -5 121.66 2.6
-1 -8 5 121.9 2.47
-1 -8 5 126.67 2.73
1 8 -4 132.57 3.61
1 8 -4 129.65 3.35
-1 -8 4 129.19 3.1
-1 -8 4 131.35 2.74
1 8 -3 144.17 3.43
1 8 -3 142.21 3.3
-1 -8 3 139.1 2.46
-1 -8 3 136.6 3.63
1 8 -2 52.09 1.4
1 8 -2 52.44 1.92
-1 -8 2 49.54 1.65
-1 -8 2 51.64 2.24
1 8 -1 22.6 1.4
1 8 -1 26.76 1.58
-1 -8 1 23.71 0.84
-1 -8 1 22.5 1.92
1 8 0 80.19 2.01
1 8 0 82.58 2.37
-1 -8 0 79.81 1.87
-1 -8 0 80.8 2.9
1 8 1 8.27 0.94
1 8 1 9.1 1.4
-1 -8 -1 9.05 0.96
-1 -8 -1 7.44 1.8
1 8 2 133.73 2.51
1 8 2 136.72 3.45
-1 -8 -2 133.75 2.94
-1 -8 -2 135.63 4.17
1 8 3 71.16 1.54
1 8 3 76.38 2.56
-1 -8 -3 74.44 2.02
-1 -8 -3 74.02 2.31
1 8 4 20.36 0.87
1 8 4 20.95 1.91
-1 -8 -4 22.34 1.28
-1 -8 -4 20.99 1.67
1 8 5 33.87 0.94
1 8 5 40.07 2.08
1 8 6 5.09 1.85
1 8 6 2.48 1.55
1 8 7 15.07 2.36
1 8 7 14.31 2.97
1 8 8 1.39 2.19
1 8 8 3.26 2.81
1 9 -9 8.44 2.02
1 9 -9 12.02 1.58
-1 -9 9 9.24 2.22
-1 -9 9 10.47 2.32
1 9 -8 12.29 2.73
1 9 -8 7.76 2.22
-1 -9 8 8.5 1.96
-1 -9 8 7.35 2.17
1 9 -7 13.74 1.71
1 9 -7 15.34 2.12
-1 -9 7 13.02 1.97
-1 -9 7 14.22 2.15
1 9 -6 39.49 2.9
1 9 -6 39.12 2.48
-1 -9 6 41.22 2.2
-1 -9 6 37.86 2.58
1 9 -5 4.38 1.88
1 9 -5 4.67 1.6
-1 -9 5 5.76 1.46
-1 -9 5 1.69 1.17
1 9 -4 74.6 2.07
1 9 -4 72.95 1.98
-1 -9 4 73.67 2.45
-1 -9 4 73.42 2.23
1 9 -3 42.64 2.15
1 9 -3 38.76 1.46
-1 -9 3 43.13 1.87
-1 -9 3 42.82 2.51
1 9 -2 73.45 2.49
1 9 -2 67.86 1.88
-1 -9 2 70.88 2.16
-1 -9 2 72.46 3.07
1 9 -1 204.05 4.52
1 9 -1 208.59 4.89
-1 -9 1 201.91 4.16
-1 -9 1 201.66 5.55
1 9 0 15.51 1.37
-1 -9 0 12.49 1.23
-1 -9 0 14.68 2.19
1 9 1 101.39 2.43
1 9 1 99.87 3.06
-1 -9 -1 98.3 2.44
-1 -9 -1 94.32 2.79
1 9 2 53.95 1.74
1 9 2 57.93 2.49
-1 -9 -2 55.59 2.19
-1 -9 -2 57.03 2.25
1 9 3 45.72 1.54
1 9 3 53.55 2.48
-1 -9 -3 49 1.57
-1 -9 -3 52.06 2.21
1 9 4 29.02 1.5
-1 -9 -4 26.21 1.31
-1 -9 -4 32.11 2.02
1 9 5 8.43 2.01
1 9 5 11.61 2.78
1 9 6 27.8 2.69
1 9 6 31.2 3.39
1 9 7 10.84 1.57
1 9 7 9.28 3.24
1 10 -8 10.08 3.12
1 10 -8 12.18 2.57
-1 -10 8 10.71 2.29
-1 -10 8 12.2 2.57
1 10 -7 14.11 1.87
1 10 -7 14.47 1.58
-1 -10 7 11.7 2.14
-1 -10 7 13.63 1.61
1 10 -6 20.19 2.71
1 10 -6 20.22 2.34
-1 -10 6 21.73 2.16
-1 -10 6 21.05 2.49
1 10 -5 13.91 2.41
1 10 -5 14.8 2.09
-1 -10 5 13.32 1.85
-1 -10 5 14.55 1.54
1 10 -4 19.55 2.28
1 10 -4 22.62 1.38
-1 -10 4 20.85 1.83
-1 -10 4 20.24 2.44
1 10 -3 12.57 1.89
1 10 -3 10 1.83
-1 -10 3 11.93 1.55
-1 -10 3 9.35 1.5
1 10 -2 22.94 1.9
1 10 -2 21.14 1.31
-1 -10 2 19.52 1.64
-1 -10 2 19.79 1.63
1 10 -1 10.42 1.62
1 10 -1 12 1.82
-1 -10 1 12 1.43
-1 -10 1 10.58 2.42
1 10 0 32.81 1.89
1 10 0 33.12 2.28
-1 -10 0 32.93 1.77
-1 -10 0 33.65 1.92
1 10 1 38.72 1.88
1 10 1 37.76 1.66
-1 -10 -1 37.38 1.84
-1 -10 -1 36.11 3.12
1 10 2 47.55 2.41
1 10 2 46.31 2.62
-1 -10 -2 48.45 1.94
-1 -10 -2 50.9 3.52
1 10 3 22.57 1.47
1 10 3 23.81 2.23
-1 -10 -3 22.66 1.47
-1 -10 -3 25.14 2.01
1 10 4 0.68 1.93
-1 -10 -4 0.97 1.73
1 10 5 9 1.5
1 10 5 10.62 3.23
1 11 -7 22.41 3.41
1 11 -7 23.48 1.93
-1 -11 7 24.79 2.04
1 11 -6 11.43 2.9
1 11 -6 12.98 2.37
-1 -11 6 13.36 2.17
-1 -11 6 12.58 2.71
1 11 -5 7.48 1.59
1 11 -5 6.14 1.47
-1 -11 5 9.29 1.93
-1 -11 5 6.86 2.63
1 11 -4 19.22 1.7
1 11 -4 23.42 2.4
-1 -11 4 21.77 2.11
-1 -11 4 21.96 2.79
1 11 -3 8.55 1.37
1 11 -3 11.41 2.08
-1 -11 3 5.93 1.73
-1 -11 3 7.32 2.58
1 11 -2 38.15 2.48
1 11 -2 38.02 1.78
-1 -11 2 36.8 2.17
-1 -11 2 38.53 3.34
1 11 -1 16.72 2
1 11 -1 17.23 2.24
-1 -11 1 17.6 1.85
-1 -11 1 17.32 2.9
1 11 0 10.09 1.18
1 11 0 11.11 2.04
-1 -11 0 9.8 1.73
-1 -11 0 9.24 1.74
1 11 1 7.95 1.68
1 11 1 9.63 2.05
-1 -11 -1 7.16 1.7
-1 -11 -1 11.39 2.86
1 11 2 14.06 1.72
1 11 2 17.89 1.51
-1 -11 -2 15.59 1.73
-1 -11 -2 14.83 2.11
1 11 3 10.23 2.2
-1 -11 -3 9.2 3.15
1 11 4 5.12 2.2
-1 -11 -4 2.57 1.97
1 12 -4 19.21 2.94
1 12 -4 17.24 1.73
-1 -12 4 19.06 2.28
-1 -12 4 19.23 2.12
1 12 -3 16.98 1.76
1 12 -3 16.72 1.71
-1 -12 3 17.24 2.2
-1 -12 3 14.36 2.05
1 12 -2 18.43 2.51
1 12 -2 14.57 1.7
-1 -12 2 17.05 2.11
-1 -12 2 19.32 3.19
1 12 -1 8.29 2.15
1 12 -1 10.1 1.47
-1 -12 1 7.08 1.32
-1 -12 1 8.32 1.91
1 12 0 10.82 2.06
1 12 0 13.41 1.52
-1 -12 0 11.48 2.15
-1 -12 0 13.76 2.13
1 12 1 12.68 2.05
1 12 1 15.15 2.53
-1 -12 -1 15.67 2.21
-1 -12 -1 13.21 3.4
2 -12 -3 14.3 2.55
2 -12 -3 13.16 1.92
-2 12 3 10.57 2.06
-2 12 3 17.9 2.15
2 -12 -2 2.37 2.16
2 -12 -2 0.62 1.61
-2 12 2 1.18 1.75
-2 12 2 2.68 1.15
2 -12 -1 11.19 2.4
2 -12 -1 17.55 2.83
-2 12 1 13.06 1.41
-2 12 1 13.87 2.18
2 -12 0 8.56 2.25
2 -12 0 9.69 1.65
-2 12 0 7.33 2.06
-2 12 0 6.93 2.02
2 -12 1 13.73 2.35
2 -12 1 16.42 2.77
-2 12 -1 16.67 2.37
-2 12 -1 13.2 2.23
2 -12 2 8.16 2.29
2 -12 2 11.48 2.61
-2 12 -2 9.28 2.39
-2 12 -2 8.97 2.24
2 -12 3 27.34 2.8
2 -12 3 26.05 3.16
-2 12 -3 27.49 1.97
-2 12 -3 27.96 2.86
2 -12 4 4.45 2.26
2 -12 4 4.3 2.53
-2 12 -4 2.18 2.49
-2 12 -4 3.54 2.37
2 -11 -5 8.04 2.13
2 -11 -5 10.06 2.72
-2 11 5 7.32 1.59
-2 11 5 5.29 1.2
2 -11 -4 36.49 2.64
2 -11 -4 36.09 2.16
-2 11 4 33.09 1.45
-2 11 4 37.08 2.35
2 -11 -3 20.41 2.33
2 -11 -3 24.63 1.85
-2 11 3 22.51 1.87
-2 11 3 18.88 1.36
2 -11 -2 28.03 2.42
2 -11 -2 27.11 1.83
-2 11 2 25.59 1.99
-2 11 2 28.49 2.12
2 -11 -1 9.27 1.98
2 -11 -1 8.93 1.53
-2 11 1 7.17 1.14
-2 11 1 9.12 1.75
2 -11 0 23.47 2.19
2 -11 0 23.31 2.58
-2 11 0 19.37 2.03
-2 11 0 22.36 2.08
2 -11 1 20.36 2.16
2 -11 1 19.71 2.43
-2 11 -1 16.48 2.11
-2 11 -1 19.36 1.36
2 -11 2 20.4 2.2
2 -11 2 17.02 2.48
-2 11 -2 15.03 2.24
-2 11 -2 18.43 1.4
2 -11 3 1.49 1.92
2 -11 3 4.5 2.12
-2 11 -3 4.56 2.04
-2 11 -3 1.98 1.9
2 -11 4 14.04 1.48
2 -11 4 13.49 2.52
-2 11 -4 18.36 2.53
-2 11 -4 17.89 2.39
2 -11 5 9.09 1.5
2 -11 5 12.76 1.65
-2 11 -5 12.5 1.73
-2 11 -5 13.6 2.59
2 -11 6 14.37 1.59
2 -11 6 12.91 2.75
-2 11 -6 13.16 2.91
-2 11 -6 13.26 1.84
-2 10 7 4.16 1.78
-2 10 7 3.74 1.42
-2 10 7 4.93 1.74
-2 10 7 7.73 2.52
-2 10 6 19.11 1.61
-2 10 6 18.31 1.9
2 -10 -5 4.63 1.77
2 -10 -5 2.22 1.42
-2 10 5 0.75 1.33
-2 10 5 3.54 1.5
2 -10 -4 7.3 1.85
2 -10 -4 7.43 2.27
-2 10 4 8.96 1.44
-2 10 4 8.74 1.59
2 -10 -3 25.24 1.38
2 -10 -3 28.21 2.46
-2 10 3 26.25 1.71
-2 10 3 23.91 1.87
2 -10 -2 35 2.15
2 -10 -2 33.34 1.75
-2 10 2 31.98 1.86
-2 10 2 31.22 1.99
2 -10 -1 68.24 2.72
2 -10 -1 67.94 3.05
-2 10 1 63.52 1.74
-2 10 1 64.81 1.79
2 -10 0 76.73 2.89
2 -10 0 79.71 3.3
-2 10 0 78.17 2.8
-2 10 0 75.52 2.77
2 -10 1 26.3 1.55
-2 10 -1 28.97 2.02
2 -10 2 20.45 1.37
2 -10 2 25.6 2.25
-2 10 -2 24.14 1.4
-2 10 -2 23.92 1.34
2 -10 3 17.65 1.92
2 -10 3 17.05 2.14
-2 10 -3 17.67 2.09
-2 10 -3 16.13 1.98
2 -10 4 10.26 1.86
2 -10 4 9.7 2.02
-2 10 -4 8.84 2.11
-2 10 -4 7.52 2
2 -10 5 18.83 2.13
2 -10 5 19.39 2.4
-2 10 -5 20.82 2.51
-2 10 -5 18.63 1.59
2 -10 6 10.18 2.13
2 -10 6 10.52 2.23
-2 10 -6 7.88 1.68
-2 10 -6 8.26 2.45
2 -10 7 6.6 1.43
2 -10 7 9.78 2.38
-2 10 -7 8.21 1.79
-2 10 -7 10.49 2.57
2 -10 8 7.61 2.39
2 -10 8 6.31 2.59
-2 10 -8 3.7 3.02
-2 10 -8 11.04 1.88
-2 9 8 9.71 1.74
-2 9 8 7.89 1.38
-2 9 8 11.14 1.81
-2 9 8 13.73 2.55
-2 9 7 7.16 1.61
-2 9 7 3.54 1.26
-2 9 7 3.75 1.56
-2 9 7 3.96 1.39
-2 9 6 24.84 1.52
-2 9 6 23.58 1.85
2 -9 -5 11.75 1.72
2 -9 -5 15.42 2.14
-2 9 5 8.33 1.32
-2 9 5 9.84 1.51
2 -9 -4 91.26 2.87
2 -9 -4 85.39 3.42
-2 9 4 84.4 2.39
-2 9 4 84.71 2.61
2 -9 -3 43.05 2.08
2 -9 -3 42.92 2.39
-2 9 3 42.38 1.75
-2 9 3 39.64 1.87
2 -9 -2 42.29 1.45
2 -9 -2 44.49 2.38
-2 9 2 45.74 1.82
-2 9 2 44.46 1.82
2 -9 -1 20.22 1.73
2 -9 -1 17.08 1.89
-2 9 1 20.42 1.02
-2 9 1 18.78 1
2 -9 0 37.06 1.91
2 -9 0 31.76 1.41
-2 9 0 33.94 1.75
-2 9 0 34.06 1.73
2 -9 1 118.95 2.57
2 -9 1 120.52 2.68
-2 9 -1 125.06 3.33
-2 9 -1 125.95 3.25
2 -9 2 28.36 1.89
2 -9 2 26.63 2.01
-2 9 -2 25.59 1.94
-2 9 -2 27.26 1.23
2 -9 3 55.88 1.69
2 -9 3 57.37 1.77
-2 9 -3 57.19 2.56
-2 9 -3 59.95 2.5
2 -9 4 34.15 2.19
2 -9 4 36.54 1.56
-2 9 -4 39.45 2.46
-2 9 -4 40.25 2.35
2 -9 5 26.65 2.17
2 -9 5 28.65 2.27
-2 9 -5 29.41 2.47
-2 9 -5 30.82 2.44
2 -9 6 30.3 2.3
2 -9 6 31.02 1.7
-2 9 -6 29.1 2.68
-2 9 -6 27.57 1.72
2 -9 7 2.05 1.17
2 -9 7 4.29 1.97
-2 9 -7 3.02 2.25
-2 9 -7 -0.84 2.26
2 -9 8 10.11 2.14
2 -9 8 10.31 1.53
-2 9 -8 8.95 2.81
-2 9 -8 10.72 2.71
2 -9 9 8.73 2.23
2 -9 9 6.56 2.57
-2 9 -9 9.98 3.03
-2 9 -9 8.01 1.93
-2 8 9 29.73 2.07
-2 8 9 30.12 2.18
-2 8 9 35.36 2.87
-2 8 8 1.33 1.44
-2 8 8 1.53 1.12
-2 8 8 -0.84 1.48
-2 8 8 1.69 2
-2 8 7 18.42 1.66
-2 8 7 15.53 1.32
-2 8 7 14.83 1.65
-2 8 7 17.38 2.15
-2 8 6 19.07 1.65
-2 8 6 19.28 1.35
-2 8 6 18.42 1.55
-2 8 6 20.05 1.38
2 -8 -5 24.77 1.74
2 -8 -5 25.53 1.4
-2 8 5 25.48 1.39
-2 8 5 24.6 1.52
2 -8 -4 93.3 2.05
2 -8 -4 95.46 2.27
-2 8 4 93.71 2.27
-2 8 4 92.36 2.42
2 -8 -3 70.79 2.27
2 -8 -3 72.42 1.82
-2 8 3 71.1 1.99
-2 8 3 70.56 1.51
2 -8 -2 96.32 2.57
2 -8 -2 98.59 2.85
-2 8 2 96.78 2.31
-2 8 2 92.47 2.3
2 -8 -1 38.41 1.21
2 -8 -1 36.61 1.31
-2 8 1 39.09 1.56
-2 8 1 42.16 1.55
2 -8 0 144.05 3.2
2 -8 0 140.74 3.35
-2 8 0 138.27 2.45
-2 8 0 140.59 3.01
2 -8 1 9.36 0.85
2 -8 1 9.18 1.41
-2 8 -1 8.68 0.83
-2 8 -1 9.73 1.25
2 -8 2 42.49 1.79
2 -8 2 40.93 1.33
-2 8 -2 41.97 1.91
-2 8 -2 40.66 1.77
2 -8 3 79.42 2.46
2 -8 3 80.14 2.56
-2 8 -3 82.54 2.62
-2 8 -3 83.12 2.59
2 -8 4 113.04 3.02
2 -8 4 111.65 3.21
-2 8 -4 108.4 3.31
-2 8 -4 106.27 2.38
2 -8 5 96.5 2.24
2 -8 5 96.62 3.15
-2 8 -5 88.77 2.53
-2 8 -5 97.79 3.38
2 -8 6 23.64 1.96
2 -8 6 23.88 1.42
-2 8 -6 23.85 2.33
-2 8 -6 24.21 2.27
2 -8 7 13.07 1.94
2 -8 7 17.02 1.42
-2 8 -7 17.81 2.35
-2 8 -7 18 2.38
2 -8 8 16.07 2.02
2 -8 8 12.69 2.37
-2 8 -8 12.82 2.67
-2 8 -8 15.99 1.72
2 -8 9 15.45 2.21
2 -8 9 12.45 1.71
-2 8 -9 19.09 2.96
-2 8 -9 19.24 2.94
-2 7 10 7.49 1.68
-2 7 10 7.92 1.44
-2 7 10 10.32 1.17
-2 7 10 10.41 2.23
-2 7 9 10.21 1.58
-2 7 9 8.41 1.36
-2 7 9 8.36 1.67
-2 7 9 7.88 1.4
-2 7 8 22.96 1.74
-2 7 8 21.18 1.44
-2 7 8 21.23 1.72
-2 7 8 24.69 2.18
-2 7 7 68.09 2.2
-2 7 7 62.43 1.95
-2 7 7 62.86 2.15
-2 7 7 62.62 1.89
-2 7 6 25.2 1.56
-2 7 6 23.87 1.3
-2 7 6 24 1.43
-2 7 6 21.12 1.25
2 -7 -5 137.25 3.13
2 -7 -5 136.31 3.52
-2 7 5 128.13 2.7
-2 7 5 132.05 2.81
2 -7 -4 73.79 2.15
2 -7 -4 72.13 2.34
-2 7 4 69.86 1.8
-2 7 4 70.16 1.87
2 -7 -3 104.71 2.5
2 -7 -3 105.97 2.67
-2 7 3 106.16 2.23
-2 7 3 105.28 2.23
2 -7 -2 17.41 1.25
2 -7 -2 15.95 0.88
-2 7 2 16.24 0.73
-2 7 2 17.17 1.05
2 -7 -1 19.9 1.27
2 -7 -1 20.38 1.34
-2 7 1 19.81 1.14
-2 7 1 19.35 0.75
2 -7 0 159.42 3.09
2 -7 0 156.18 3.14
-2 7 0 153.99 2.49
-2 7 0 152.69 2.87
2 -7 1 139.62 2.87
2 -7 1 135.67 2.91
-2 7 -1 135.24 2.78
-2 7 -1 132.06 2.73
2 -7 2 18.19 1.29
2 -7 2 15.68 0.88
-2 7 -2 16.64 0.89
-2 7 -2 15.93 0.85
2 -7 3 99.71 2.42
2 -7 3 96.97 2.49
-2 7 -3 95.38 2.59
-2 7 -3 93.18 1.91
2 -7 4 12.48 0.96
2 -7 4 12.77 1.49
-2 7 -4 11.22 1.56
-2 7 -4 9.93 1.02
2 -7 5 85.96 1.91
2 -7 5 90.33 2.74
-2 7 -5 86.34 2.85
-2 7 -5 85.87 2.08
2 -7 6 14.67 1.07
2 -7 6 15.8 1.8
-2 7 -6 12.36 1.26
-2 7 -6 16.91 1.99
2 -7 7 30.31 1.98
2 -7 7 28.56 2.19
-2 7 -7 32.44 2.4
2 -7 8 30.51 2.14
2 -7 8 30.41 2.48
-2 7 -8 27.96 2.67
-2 7 -8 36.68 2.89
2 -7 9 24.58 2.16
2 -7 9 23.3 2.58
-2 7 -9 21.08 1.91
-2 7 -9 29.5 3
2 -7 10 9.22 2.09
2 -7 10 10.49 1.66
-2 7 -10 13.14 2.85
-2 7 -10 12.41 1.95
-2 6 10 10.03 1.59
-2 6 10 9.92 1.48
-2 6 10 9.11 1.78
-2 6 10 10.56 2.06
-2 6 9 35.01 1.88
-2 6 9 31.55 1.7
-2 6 9 32.81 1.95
-2 6 9 33.75 2.26
-2 6 8 26.76 1.71
-2 6 8 25.81 1.52
-2 6 8 29.23 1.67
-2 6 8 30.09 2.01
-2 6 7 33.92 1.61
-2 6 7 31.85 1.51
-2 6 7 32.18 1.92
-2 6 6 138.91 3.03
-2 6 6 133.32 2.31
-2 6 6 134.34 2.83
-2 6 6 141.91 3.29
2 -6 -5 85.85 2.16
2 -6 -5 83.38 2.28
-2 6 5 81.37 1.92
-2 6 5 79.68 1.85
2 -6 -4 263.17 4.81
2 -6 -4 260.13 4.92
-2 6 4 263.44 4.58
-2 6 4 260.53 4.37
2 -6 -3 71.76 1.4
2 -6 -3 74.85 1.85
-2 6 3 75.1 1.68
-2 6 3 72.43 1.21
2 -6 -2 140.38 2.63
2 -6 -2 138.61 2.18
-2 6 2 140.03 2.47
-2 6 2 137.7 2.32
2 -6 -1 205.29 3.56
2 -6 -1 210.4 3.63
-2 6 1 204.33 3.46
-2 6 1 205.76 3.3
2 -6 0 693.64 12.72
2 -6 0 733.8 14.15
-2 6 0 718.04 13.78
-2 6 0 694.48 13.25
2 -6 1 34.68 1.32
2 -6 1 36.6 1.31
-2 6 -1 32.94 0.89
-2 6 -1 35.66 1.22
2 -6 2 93.5 1.6
2 -6 2 92.89 1.63
-2 6 -2 93.85 1.64
-2 6 -2 94.86 2.05
2 -6 3 100.42 2.25
2 -6 3 99.93 1.81
-2 6 -3 100.14 1.89
-2 6 -3 103.8 2.37
2 -6 4 83.29 1.59
2 -6 4 80.51 1.7
-2 6 -4 84.01 2.36
-2 6 -4 88 2.31
2 -6 5 20.66 1.37
2 -6 5 15.08 1.57
-2 6 -5 17.02 1.61
-2 6 -5 19.89 1.63
2 -6 6 0.93 0.75
2 -6 6 0.3 0.89
-2 6 -6 1.01 1.44
-2 6 -6 3.7 1.5
2 -6 7 1.1 1.29
2 -6 7 0.06 1.55
-2 6 -7 2.71 1.63
-2 6 -7 1.24 1.15
2 -6 8 24.78 1.27
2 -6 8 23.25 2.27
-2 6 -8 28.98 2.37
-2 6 -8 27.79 2.5
2 -6 9 8.57 1.7
2 -6 9 11.2 2.16
-2 6 -9 10.53 2.33
-2 6 -9 12.16 2.46
2 -6 10 3.15 1.76
2 -6 10 6.62 2.2
-2 6 -10 7.26 2.44
-2 6 -10 3.99 2.61
-2 5 11 0.9 1.44
-2 5 11 0.62 1.47
-2 5 11 -1.26 1.68
-2 5 11 3.83 1.78
-2 5 10 6.99 1.53
-2 5 10 11.41 1.54
-2 5 10 9.73 1.66
-2 5 10 9.31 1.22
-2 5 9 23.22 1.65
-2 5 9 20.3 1.49
-2 5 9 19.74 1.59
-2 5 9 17.91 1.22
-2 5 8 53.16 1.9
-2 5 8 46.41 1.27
-2 5 8 48.52 1.86
-2 5 8 51.25 2.12
-2 5 7 131.73 2.91
-2 5 7 131.73 2.83
-2 5 7 131.26 2.73
-2 5 7 133.88 2.55
-2 5 6 30.49 1.38
-2 5 6 31.32 1.29
-2 5 6 31.77 1.22
-2 5 6 34.54 1.47
-2 5 5 216.93 3.32
-2 5 5 220.25 3.56
2 -5 -4 119.58 2.4
2 -5 -4 121.94 2.32
-2 5 4 124.48 2.26
-2 5 4 124.36 2.07
2 -5 -3 148.62 2.61
2 -5 -3 145.28 2.49
-2 5 3 146.15 2.1
-2 5 3 144.77 2.24
2 -5 -2 211.38 3.47
2 -5 -2 206.32 3.23
-2 5 2 207.28 3.23
-2 5 2 204.77 2.69
2 -5 -1 145.74 2.52
2 -5 -1 146.6 2.39
-2 5 1 145.58 2.4
-2 5 1 152.53 2.26
2 -5 0 1471.5 34.72
2 -5 0 1468.75 34.4
-2 5 0 1533.42 36.8
-2 5 0 1501.41 35.77
2 -5 1 46.4 1.24
2 -5 1 44.88 0.93
-2 5 -1 48.5 1.27
2 -5 2 669.88 11.79
2 -5 2 700.2 12.88
-2 5 -2 679.96 12.09
-2 5 -2 675.43 12.65
2 -5 3 83.01 1.76
2 -5 3 79.88 1.83
-2 5 -3 74.97 1.87
-2 5 -3 76.05 1.42
2 -5 4 227.06 3.49
2 -5 4 231.15 3.66
-2 5 -4 226.83 4.3
-2 5 -4 224.43 3.66
2 -5 5 91.05 2.16
2 -5 5 93.74 2.46
-2 5 -5 92.34 2.45
-2 5 -5 90.49 1.92
2 -5 6 53.48 1.75
2 -5 6 55.82 2.11
-2 5 -6 53.11 2.09
-2 5 -6 56.26 2.32
2 -5 7 77.3 2.25
2 -5 7 72.65 1.95
-2 5 -7 75.1 2.65
-2 5 -7 76.26 2.13
2 -5 8 7.64 0.88
2 -5 8 6.25 1.73
-2 5 -8 3.8 1.79
-2 5 -8 7.95 1.98
2 -5 9 6.53 1.5
2 -5 9 5.09 1.94
-2 5 -9 9.88 2.08
-2 5 -9 9.62 2.35
2 -5 10 -0.09 1.5
2 -5 10 1.52 1.26
-2 5 -10 3.62 2.18
-2 5 -10 1.44 2.36
2 -5 11 5.32 2.3
-2 5 -11 4.08 2.52
-2 5 -11 4.23 2.73
-2 4 12 2.6 1.6
-2 4 12 1.84 1.8
-2 4 12 3.46 1.8
-2 4 12 4.52 1.92
-2 4 11 22.02 1.81
-2 4 11 20.63 1.97
-2 4 11 22.58 1.98
-2 4 11 18.17 2.13
-2 4 10 15.44 1.57
-2 4 10 14.74 1.63
-2 4 10 13.24 1.64
-2 4 10 12.56 1.74
-2 4 9 46.96 1.99
-2 4 9 49.21 1.98
-2 4 9 47.77 1.92
-2 4 9 49.13 2.15
-2 4 8 26.89 1.48
-2 4 8 24.08 1.01
-2 4 8 25.35 1.37
-2 4 8 24.99 1.49
-2 4 7 1.46 1.04
-2 4 7 0.04 0.97
-2 4 7 0.76 0.85
-2 4 7 2.35 1.01
-2 4 6 97.98 2.12
-2 4 6 95.39 2.11
-2 4 6 95.04 1.84
-2 4 6 95.04 1.66
-2 4 5 234.63 3.98
-2 4 5 237.05 3.98
-2 4 5 229.92 3.49
-2 4 5 226.58 3.73
2 -4 -4 158.11 2.73
2 -4 -4 156.11 2.5
-2 4 4 150.85 2.52
-2 4 4 156.63 2.24
2 -4 -3 522.66 8.96
2 -4 -3 516.03 8.38
-2 4 3 518.88 8.66
-2 4 3 529.84 8.09
2 -4 -2 7.7 0.53
2 -4 -2 8.57 0.61
-2 4 2 8.2 0.48
-2 4 2 7.15 0.52
2 -4 -1 1141.53 23.88
2 -4 -1 1124.66 22.59
-2 4 1 1108.03 22.92
-2 4 1 1121.99 22.3
2 -4 0 74.95 1.44
2 -4 0 71.43 1.26
-2 4 0 73.09 1.1
-2 4 0 74.39 1.24
2 -4 1 3.34 0.45
-2 4 -1 3.8 0.66
-2 4 -1 2.24 0.41
2 -4 2 63.98 1.31
2 -4 2 58.11 1.28
-2 4 -2 61.68 1.03
-2 4 -2 61.39 1.37
2 -4 3 417.35 6.38
2 -4 3 440.57 7.35
-2 4 -3 428.15 6.67
-2 4 -3 426.35 6.74
2 -4 4 244.07 3.56
2 -4 4 254.21 3.88
-2 4 -4 250.99 4.34
-2 4 -4 250.49 3.93
2 -4 5 78.04 1.75
2 -4 5 73.6 2.07
-2 4 -5 73.3 1.96
-2 4 -5 76.28 1.64
2 -4 6 101.7 2.23
2 -4 6 104.61 2.11
-2 4 -6 101.04 2.55
-2 4 -6 105.9 2.9
2 -4 7 39.03 1.56
2 -4 7 40.32 2.08
-2 4 -7 41.89 1.95
-2 4 -7 40.3 2.27
2 -4 8 129.65 3.08
2 -4 8 128.71 3.91
-2 4 -8 125.07 3.73
-2 4 -8 132.04 4.29
2 -4 9 19.22 1.56
2 -4 9 18.72 2.24
-2 4 -9 18.57 2.14
-2 4 -9 18.79 2.42
2 -4 10 10.67 1.55
2 -4 10 10.62 2.24
-2 4 -10 5.38 2.23
-2 4 -10 10.95 2.53
2 -4 11 7.14 1.67
2 -4 11 5.92 2.39
-2 4 -11 7.24 2.53
-2 4 -11 9.53 2.81
-2 3 12 10.12 1.72
-2 3 12 11.2 2.1
-2 3 12 10.32 2.03
-2 3 12 10.16 1.98
-2 3 11 8.16 1.57
-2 3 11 7.26 1.8
-2 3 11 7.41 1.71
-2 3 11 7.85 1.69
-2 3 10 40.35 1.34
-2 3 10 40.65 2.11
-2 3 10 40.61 1.99
-2 3 10 38.45 2.04
-2 3 9 123.6 2.4
-2 3 9 124.27 2.57
-2 3 9 123.1 2.95
-2 3 9 121 3.02
-2 3 8 85.27 2.26
-2 3 8 84 1.78
-2 3 8 85.74 2.09
-2 3 8 90.76 2.27
-2 3 7 157.65 2.63
-2 3 7 159.96 3.25
-2 3 7 157.72 2.77
-2 3 7 162.58 3.01
-2 3 6 122.81 2.46
-2 3 6 122.83 2.53
-2 3 6 124.84 2.1
-2 3 6 123.8 2.21
-2 3 5 123.56 2.29
-2 3 5 117.87 1.86
-2 3 5 120.21 1.81
-2 3 5 122.36 1.96
-2 3 4 60.55 1.42
-2 3 4 60 1.35
-2 3 4 59.9 0.97
-2 3 4 60.12 1.09
2 -3 -3 107.05 1.53
2 -3 -3 106.25 1.45
-2 3 3 109.56 1.8
-2 3 3 106.31 1.31
2 -3 -2 113.24 1.54
2 -3 -2 116.32 1.46
-2 3 2 114.79 1.53
-2 3 2 116.53 1.35
2 -3 -1 813.96 14.55
2 -3 -1 802.9 13.34
-2 3 1 799.96 13.75
-2 3 1 807.8 13.24
2 -3 0 148.49 2.12
2 -3 0 144.78 1.65
-2 3 0 143.99 2.04
-2 3 0 147.84 1.87
2 -3 1 8.24 0.63
2 -3 1 6.44 0.57
-2 3 -1 6.78 0.61
-2 3 -1 7.94 0.61
2 -3 2 420.2 6.3
2 -3 2 417.14 6.38
-2 3 -2 410.1 5.87
-2 3 -2 431.04 6.63
2 -3 3 57.5 1.16
2 -3 3 57.55 1.37
-2 3 -3 55.27 0.93
-2 3 -3 55.62 1.05
2 -3 4 94.51 1.63
2 -3 4 89.92 1.55
-2 3 -4 93.03 1.75
-2 3 -4 90.46 1.6
2 -3 5 2.16 0.69
2 -3 5 0.72 1.04
-2 3 -5 0.07 0.86
-2 3 -5 1.3 1.08
2 -3 6 78.76 1.72
2 -3 6 78.21 1.75
-2 3 -6 85.2 2.57
2 -3 7 81.85 1.94
2 -3 7 80.83 1.99
-2 3 -7 80.8 2.3
-2 3 -7 83.89 2.87
2 -3 8 23.23 1.36
2 -3 8 25.03 2.01
-2 3 -8 22.3 1.75
-2 3 -8 27.76 2.19
2 -3 9 17.81 1.42
2 -3 9 17.56 2.15
-2 3 -9 20.66 1.96
-2 3 -9 16.91 2.3
2 -3 10 5.63 1.36
2 -3 10 10.08 2.06
-2 3 -10 5.51 1.97
-2 3 -10 5.13 1.56
2 -3 11 6.36 0.96
2 -3 11 3.7 2.36
-2 3 -11 10.83 2.3
-2 3 -11 8.83 2.81
-2 2 12 4.81 1.66
-2 2 12 3.64 2.07
-2 2 12 6.12 1.84
-2 2 12 6.43 1.7
-2 2 11 12.86 1.65
-2 2 11 10.81 1.98
-2 2 11 13.15 1.81
-2 2 11 13.79 1.62
-2 2 10 22.71 1.65
-2 2 10 22.82 1.29
-2 2 10 22.85 1.69
-2 2 10 20.78 1.63
-2 2 9 65.89 1.61
-2 2 9 67.8 2.45
-2 2 9 71.67 2.09
-2 2 9 65.83 2.04
-2 2 8 45.21 1.65
-2 2 8 46.05 1.83
-2 2 8 43.94 1.47
-2 2 8 44.21 1.48
-2 2 7 118.24 2.04
-2 2 7 120.88 2.7
-2 2 7 120.93 2.23
-2 2 7 118.73 2.2
-2 2 6 798.17 16.2
-2 2 6 789.66 15.57
-2 2 6 811.04 15.21
-2 2 6 832.49 15.72
-2 2 5 1141.82 24.99
-2 2 5 1111.67 24.55
-2 2 5 1133.15 22.76
-2 2 5 1130.12 23.44
-2 2 4 145.03 2.01
-2 2 4 148.49 2.42
-2 2 4 141.43 1.69
-2 2 3 528.98 8.52
-2 2 3 521.12 7.09
2 -2 -2 88.47 1.48
2 -2 -2 86.73 0.9
-2 2 2 86.61 1.43
-2 2 2 86.46 0.84
2 -2 -1 1989.36 50.71
2 -2 -1 1941.08 46.12
-2 2 1 1947.91 49.57
-2 2 1 1941.76 46.11
2 -2 0 218.48 2.82
2 -2 0 213.33 2.5
-2 2 0 211.1 2.71
-2 2 0 209.97 2.33
2 -2 1 3.57 0.33
2 -2 1 3.55 0.49
-2 2 -1 2.54 0.47
-2 2 -1 3.47 0.34
2 -2 2 225.14 2.71
2 -2 2 222.6 3.16
-2 2 -2 222.33 2.91
-2 2 -2 232.46 3.32
2 -2 3 586.33 9.33
2 -2 3 574.42 9.94
-2 2 -3 583.42 9.45
-2 2 -3 584.46 10.2
2 -2 4 29.86 0.82
2 -2 4 28.47 1.2
-2 2 -4 30.46 0.92
-2 2 -4 32.36 1.25
2 -2 5 25.85 0.63
2 -2 5 27.79 1.32
-2 2 -5 29.23 1.02
-2 2 -5 26.2 1.43
2 -2 6 6.59 0.5
2 -2 6 7.86 0.82
-2 2 -6 7.57 0.96
-2 2 -6 7.66 1.34
2 -2 7 15.42 0.94
2 -2 7 14.83 1.59
-2 2 -7 17.43 1.26
-2 2 -7 16.78 1.12
2 -2 8 55.79 1.6
2 -2 8 50.85 1.71
-2 2 -8 55.52 2.06
-2 2 -8 57.71 2.73
2 -2 9 20.01 1.27
2 -2 9 18.97 1.43
-2 2 -9 20.43 1.83
-2 2 -9 23.45 2.4
2 -2 10 5.67 1.22
2 -2 10 7.36 2.07
-2 2 -10 4.01 1.82
-2 2 -10 3.61 2.38
2 -2 11 7.98 1.46
2 -2 11 4.61 2.51
-2 2 -11 12.29 2.14
-2 2 -11 12.06 2.8
-2 1 12 14.97 1.18
-2 1 12 15.69 1.53
-2 1 12 16.86 2.09
-2 1 12 14.48 1.91
2 -1 -11 10.87 1.34
2 -1 -11 13.7 1.81
-2 1 11 14.09 1.62
-2 1 11 12.56 1.6
2 -1 -10 59.41 1.89
2 -1 -10 61.58 2.26
-2 1 10 57.66 2.27
-2 1 10 57.77 2.1
2 -1 -9 70.4 2.47
2 -1 -9 67.31 2.07
-2 1 9 68.45 2.18
-2 1 9 67.31 1.93
2 -1 -8 9.73 1.35
2 -1 -8 9.2 1.01
-2 1 8 10.28 1.19
-2 1 8 10.01 0.97
2 -1 -7 41.35 1.61
2 -1 -7 44.57 1.23
-2 1 7 40.67 1.05
-2 1 7 41.53 1.15
2 -1 -6 270.35 4.79
2 -1 -6 274.83 4.34
-2 1 6 264.57 4.04
-2 1 6 273.55 3.94
2 -1 -5 1.87 0.81
2 -1 -5 1.33 0.45
-2 1 5 1.75 0.78
-2 1 5 1.35 0.43
2 -1 -4 374.47 5.96
2 -1 -4 369.57 4.67
-2 1 4 372.79 5.39
-2 1 4 378.1 4.89
-2 1 3 348.76 5.15
-2 1 3 343.32 4.81
-2 1 3 344.88 3.85
-2 1 3 351.59 3.93
-2 1 2 2185.99 56.53
-2 1 2 1945.54 43.78
-2 1 2 2118.49 47.92
2 -1 -1 4313.26 163.9
2 -1 -1 4074.11 147.31
-2 1 1 4437.44 169.01
-2 1 1 4081.03 148.23
2 -1 0 76.49 1.08
2 -1 0 75.41 0.93
-2 1 0 73.75 1.02
-2 1 0 74.61 0.95
2 -1 1 884.5 15.03
2 -1 1 875.4 15.48
-2 1 -1 881.43 14.86
-2 1 -1 876 15.61
2 -1 2 25.72 0.55
2 -1 2 26.4 0.86
-2 1 -2 25.07 0.56
-2 1 -2 26.64 0.63
2 -1 3 357.96 4.71
2 -1 3 348.78 5.57
-2 1 -3 351.87 4.76
-2 1 -3 354.79 5.76
2 -1 4 217.72 2.81
2 -1 4 213.53 3.74
-2 1 -4 214.05 2.96
-2 1 -4 208.99 3.67
2 -1 5 42.99 0.89
2 -1 5 41.61 1.11
-2 1 -5 42.37 1.07
-2 1 -5 40.74 1.14
2 -1 6 280.07 4.13
2 -1 6 261.21 4.65
-2 1 -6 265.89 4.45
-2 1 -6 285.53 5.71
2 -1 7 22.41 0.92
2 -1 7 23.79 1.77
-2 1 -7 23.65 1.22
-2 1 -7 23.99 1.87
2 -1 8 27.55 1.12
2 -1 8 28.33 1.45
-2 1 -8 28.01 1.55
-2 1 -8 31.62 1.58
2 -1 9 1.57 0.91
2 -1 9 2.35 1.15
-2 1 -9 2.36 1.33
-2 1 -9 1.62 1.97
2 -1 10 2.59 1.09
2 -1 10 4.04 1.29
-2 1 -10 3.79 1.57
-2 1 -10 6.9 2.34
2 -1 11 5.85 1.32
2 -1 11 5.9 2.43
-2 1 -11 10.43 1.91
-2 1 -11 10.24 1.76
2 0 -13 2.34 2.44
2 0 -13 4.26 2.16
-2 0 13 1.68 1.74
-2 0 13 1.5 1.78
2 0 -12 7.67 2.29
2 0 -12 10.01 2.01
-2 0 12 10.24 1.78
-2 0 12 7.81 1.69
2 0 -11 13.74 2.07
2 0 -11 11.12 1.78
-2 0 11 12.81 1.67
-2 0 11 8.9 1.54
2 0 -10 84.96 3.14
2 0 -10 83.46 2.69
-2 0 10 82.41 2.69
-2 0 10 80.02 2.45
2 0 -9 59.31 2.46
2 0 -9 58.82 1.98
-2 0 9 58.83 2.11
-2 0 9 59.9 1.81
2 0 -8 23.68 1.61
2 0 -8 20.56 0.83
-2 0 8 21.52 1.33
-2 0 8 20.43 1.09
2 0 -7 72.16 2.08
2 0 -7 72.78 1.57
-2 0 7 73.25 1.45
-2 0 7 70.61 1.44
2 0 -6 247.01 3.95
2 0 -6 257.03 3.74
-2 0 6 247.94 4.27
-2 0 6 253.96 3.56
2 0 -5 185.43 2.75
2 0 -5 185.67 2.39
-2 0 5 193.11 3.14
-2 0 5 187.59 2.33
2 0 -4 19.53 0.94
2 0 -4 20.73 0.46
-2 0 4 22.32 0.93
-2 0 4 20.52 0.41
2 0 -3 25.22 0.63
2 0 -3 25.98 0.4
-2 0 3 25.93 0.63
-2 0 3 26.29 0.36
2 0 -2 507.54 7.45
-2 0 2 509.15 7.73
-2 0 2 537.71 6.48
2 0 -1 2.35 0.29
2 0 -1 2.93 0.31
-2 0 1 2.28 0.3
-2 0 1 1.49 0.47
2 0 0 1626.52 36.38
-2 0 0 1613.03 35.77
-2 0 0 1622.38 36.22
2 0 1 502.31 6.7
2 0 1 493.02 7.46
-2 0 -1 503.45 6.6
-2 0 -1 521.65 7.78
2 0 2 510.56 6.71
2 0 2 490.54 7.89
-2 0 -2 499.19 6.51
-2 0 -2 497.06 7.99
2 0 3 172.77 1.89
2 0 3 168.53 2.88
-2 0 -3 170.34 1.95
-2 0 -3 175.36 2.51
2 0 4 63.66 0.85
2 0 4 61.69 1.25
-2 0 -4 62.54 0.95
-2 0 -4 63.83 1.68
2 0 5 290.73 3.82
2 0 5 294.88 5.51
-2 0 -5 291.08 4.4
-2 0 -5 294.41 5.48
2 0 6 113.1 1.62
2 0 6 105.7 2.22
-2 0 -6 110.41 2.18
-2 0 -6 111 2.92
2 0 7 47.97 1.26
2 0 7 44.04 2.21
-2 0 -7 46.29 1.37
-2 0 -7 46.89 2.23
2 0 8 111.76 2.02
2 0 8 107.68 3.63
-2 0 -8 112.67 2.52
-2 0 -8 112.02 3.9
2 0 9 10.33 1.18
2 0 9 10.84 1.31
-2 0 -9 9.28 1.68
-2 0 -9 10.33 2.15
2 0 10 12.08 1.42
2 0 10 14.17 2.37
-2 0 -10 11.5 1.47
-2 0 -10 11.09 2.5
2 0 11 1.36 1.12
2 0 11 2.86 1.44
-2 0 -11 2.94 1.55
-2 0 -11 2.14 2.56
2 1 -13 5.87 2.58
2 1 -13 7.2 2.29
-2 -1 13 4.54 1.91
-2 -1 13 5.59 1.16
2 1 -12 20.59 1.86
2 1 -12 24.11 2.46
-2 -1 12 26.11 2.07
-2 -1 12 23.84 1.96
2 1 -11 26.32 2.56
2 1 -11 29.45 2.12
-2 -1 11 24.42 1.35
-2 -1 11 25.26 1.82
2 1 -10 74.58 3.11
2 1 -10 70.93 2.55
-2 -1 10 75.59 2.62
-2 -1 10 78.1 2.32
2 1 -9 48.07 2.38
2 1 -9 49.71 1.86
-2 -1 9 49.91 1.93
-2 -1 9 48.62 1.65
2 1 -8 2.25 1.41
2 1 -8 3.65 0.97
-2 -1 8 2.09 0.73
-2 -1 8 2.38 0.87
2 1 -7 202.37 4.19
2 1 -7 200.16 3.37
-2 -1 7 194.89 3.76
-2 -1 7 200.76 3.17
2 1 -6 236.06 4.38
2 1 -6 227.12 3.4
-2 -1 6 225.19 3.94
-2 -1 6 231.15 3.27
2 1 -5 61.99 1.66
2 1 -5 62.53 1.05
-2 -1 5 64.06 1.53
-2 -1 5 61.68 0.98
2 1 -4 419.33 6.44
2 1 -4 418.13 5.62
-2 -1 4 436.16 6.93
-2 -1 4 429.53 5.63
2 1 -3 540.55 8.78
2 1 -3 524.99 7.28
-2 -1 3 531.58 8.53
-2 -1 3 538.45 7.31
2 1 -2 218.16 2.75
2 1 -2 221.57 2.39
-2 -1 2 228.06 3.04
-2 -1 2 223.55 2.47
2 1 -1 228.05 2.83
2 1 -1 219.13 2.52
-2 -1 1 221.46 2.74
-2 -1 1 221.3 2.61
2 1 0 1226.91 24.36
-2 -1 0 1238.86 23.72
2 1 1 802.06 14.35
2 1 1 799.9 14.38
-2 -1 -1 806.58 12.33
-2 -1 -1 837.55 12.66
2 1 2 100.81 0.92
2 1 2 105.09 1.85
-2 -1 -2 102.61 0.92
-2 -1 -2 102.47 1.49
2 1 3 851.48 13.13
2 1 3 816.49 16.36
-2 -1 -3 835.54 13.1
-2 -1 -3 859.41 17
2 1 4 177.22 1.9
2 1 4 173.23 2.78
-2 -1 -4 176.41 1.97
-2 -1 -4 181.27 3.28
2 1 5 89.57 1.05
2 1 5 89.18 1.82
-2 -1 -5 89.28 1.22
-2 -1 -5 90.36 2.33
2 1 6 72.86 1.16
2 1 6 67.78 1.76
-2 -1 -6 70.01 1.2
-2 -1 -6 71.97 2.33
2 1 7 13.6 0.59
2 1 7 14.58 1.14
-2 -1 -7 14.5 0.78
-2 -1 -7 17.17 1.79
2 1 8 31.83 1.15
2 1 8 33.71 2.37
-2 -1 -8 34.12 1.49
-2 -1 -8 34.52 2.44
2 1 9 6.36 0.78
2 1 9 6.01 2.09
-2 -1 -9 8.23 1.04
-2 -1 -9 7.91 2.16
2 1 10 16.55 1.32
2 1 10 18.28 1.71
-2 -1 -10 18.94 1.37
-2 -1 -10 21.9 2.72
2 1 11 17.01 2.82
2 2 -13 6.44 1.78
2 2 -13 4.83 2.41
-2 -2 13 4.87 1.96
-2 -2 13 6.57 1.86
2 2 -12 6.93 2.48
2 2 -12 6.01 2.15
-2 -2 12 8.17 1.85
-2 -2 12 6.48 1.13
2 2 -11 11.16 1.52
2 2 -11 13.03 1.92
-2 -2 11 13.27 1.77
-2 -2 11 13 1.56
2 2 -10 55.84 2.97
2 2 -10 52.95 2.3
-2 -2 10 58.93 2.4
-2 -2 10 53.9 2.01
2 2 -9 18.51 1.95
2 2 -9 13.7 1.45
-2 -2 9 14.76 1.52
-2 -2 9 14.99 1.21
2 2 -8 87.15 2.84
2 2 -8 85.88 2.1
-2 -2 8 88.75 2.4
-2 -2 8 88.49 1.95
2 2 -7 161.65 3.72
2 2 -7 168.57 2.93
-2 -2 7 160.27 3.3
-2 -2 7 162.85 2.72
2 2 -6 311.26 5.91
2 2 -6 315.82 4.91
-2 -2 6 307.21 4.81
-2 -2 6 309.68 4.66
2 2 -5 338.77 6.02
2 2 -5 346.21 5
-2 -2 5 337.02 5.13
-2 -2 5 345.25 4.86
2 2 -4 51.37 1.42
2 2 -4 53.31 0.92
-2 -2 4 50.05 0.96
-2 -2 4 51.57 0.87
2 2 -3 713.62 12.63
2 2 -3 692.68 11.01
-2 -2 3 697.7 11.72
-2 -2 3 700.44 11
2 2 -2 0.2 0.59
2 2 -2 0.57 0.4
-2 -2 2 0.46 0.53
2 2 -1 29.93 0.52
2 2 -1 30.98 0.71
-2 -2 1 29.51 0.65
-2 -2 1 30.93 0.77
2 2 0 195.92 2.37
2 2 0 200.56 2.48
-2 -2 0 201.42 2.22
-2 -2 0 199.79 2.85
2 2 1 129.36 2.02
-2 -2 -1 132.73 1.2
2 2 2 370.17 5.93
2 2 2 353.39 5.35
2 2 3 636.41 11.28
2 2 3 639.82 12.25
2 2 4 36.92 1.47
2 2 4 33.68 1.51
2 2 5 337.79 3.83
2 2 5 346.14 4.11
2 2 5 337.23 5.92
2 2 5 339.05 6.93
2 2 6 19.88 0.47
2 2 6 20.02 0.58
2 2 6 19.91 1.1
2 2 6 19.49 1.12
2 2 7 62.19 0.89
2 2 7 60.93 1.23
2 2 7 64.85 1.91
2 2 7 66.31 1.97
2 2 8 44.36 0.86
2 2 8 44.19 1.28
2 2 8 48.55 2.72
2 2 8 43.81 1.81
2 2 9 5.99 0.61
2 2 9 6.1 0.77
2 2 9 7.2 2.12
2 2 9 8.37 1.39
2 2 10 9.57 2.48
2 2 10 7.86 1.57
2 2 11 2.53 2.81
2 2 11 6.53 2.6
2 3 -12 30.04 3.17
2 3 -12 31.36 2.75
-2 -3 12 25.98 2.32
-2 -3 12 25.37 2.11
2 3 -11 13.72 1.71
2 3 -11 17.59 2.05
-2 -3 11 15.8 1.93
-2 -3 11 15.6 1.68
2 3 -10 25.16 2.58
2 3 -10 30.71 2.05
-2 -3 10 29.1 2.01
-2 -3 10 28.56 1.66
2 3 -9 1.48 1.78
2 3 -9 0.86 1.26
-2 -3 9 2.36 0.88
-2 -3 9 1.24 1.06
2 3 -8 13.77 1.2
2 3 -8 11.52 0.83
-2 -3 8 14.26 0.98
-2 -3 8 14.49 1.09
2 3 -7 219.21 4.81
2 3 -7 213.65 3.77
-2 -3 7 205.48 3.44
-2 -3 7 204.56 3.08
2 3 -6 175.41 3.67
2 3 -6 169.19 2.8
-2 -3 6 170.3 3.24
-2 -3 6 176.31 2.81
2 3 -5 26.2 1.37
2 3 -5 29.16 0.95
-2 -3 5 27.39 1.19
-2 -3 5 29.03 0.87
2 3 -4 327.05 5.53
2 3 -4 331.56 4.76
-2 -3 4 326.9 5.17
-2 -3 4 322.24 4.69
2 3 -3 321.91 5.14
2 3 -3 331.9 4.67
-2 -3 3 328.98 5
-2 -3 3 330.64 4.75
2 3 -2 534.6 8.69
2 3 -2 539.48 8.4
-2 -3 2 534.65 8.45
-2 -3 2 540.78 8.6
2 3 -1 169.28 2.29
2 3 -1 172.86 2.43
-2 -3 1 172.16 2.21
-2 -3 1 173.8 2.58
2 3 0 250.81 3.12
2 3 0 259.4 3.76
-2 -3 0 257.73 3.03
-2 -3 0 258.27 3.91
2 3 1 155.73 1.7
2 3 1 156.58 2.19
-2 -3 -1 156.88 1.57
-2 -3 -1 151.94 2.26
2 3 2 618.32 11.28
2 3 2 615.11 11.61
2 3 3 113.69 1.94
2 3 3 114.58 2.07
2 3 4 36.78 1.6
2 3 4 35.49 1.75
2 3 5 30.91 1.74
2 3 5 28.8 1.85
2 3 6 5.7 1.53
2 3 6 5.96 1.08
2 3 7 112.87 3.61
2 3 7 114.88 3.84
2 3 8 18.79 2.28
2 3 8 22.71 2.43
2 3 9 18.9 1.67
2 3 9 22.06 2.56
2 3 10 14.37 2.56
2 3 10 10.64 1.74
2 4 -12 1.74 2.75
2 4 -12 3.58 2.16
-2 -4 12 5.42 1.93
-2 -4 12 1.76 1.73
2 4 -11 16.27 2.77
2 4 -11 19 2.3
-2 -4 11 16.22 1.33
-2 -4 11 18.05 1.79
2 4 -10 29.22 2.86
2 4 -10 31.5 1.47
-2 -4 10 33.41 1.45
-2 -4 10 32.15 1.82
2 4 -9 19.33 2.29
2 4 -9 17.19 1.67
-2 -4 9 17.75 1.72
-2 -4 9 18.02 1.41
2 4 -8 186.83 4.07
2 4 -8 193.48 4.15
-2 -4 8 199.82 4.42
-2 -4 8 195.43 3.95
2 4 -7 52.37 2.38
2 4 -7 51.06 1.65
-2 -4 7 48.83 1.35
-2 -4 7 49.92 1.54
2 4 -6 150.3 3.52
2 4 -6 152.5 2.77
-2 -4 6 150.92 3.06
-2 -4 6 149.04 2.72
2 4 -5 2.49 0.74
2 4 -5 3.11 0.76
-2 -4 5 2 0.93
-2 -4 5 1.59 0.76
2 4 -4 26.57 0.89
2 4 -4 24.52 0.66
-2 -4 4 26.53 1.08
-2 -4 4 26.38 0.68
2 4 -3 320.61 4.91
2 4 -3 325.84 4.93
-2 -4 3 327.54 5.13
-2 -4 3 316.99 4.96
2 4 -2 144.67 2.31
2 4 -2 149.74 2.28
-2 -4 2 146.26 2.19
-2 -4 2 144.1 2.04
2 4 -1 949.59 18.17
2 4 -1 921.63 18.45
-2 -4 1 958.22 17.84
-2 -4 1 928.28 18.22
2 4 0 538.92 8.25
2 4 0 545 9.3
-2 -4 0 525.93 7.65
-2 -4 0 524.82 8.84
2 4 1 449.91 6.12
2 4 1 426.89 7.34
-2 -4 -1 441.71 5.85
-2 -4 -1 441.85 7.99
2 4 2 237.65 2.52
2 4 2 237.23 4.16
-2 -4 -2 225.61 2.36
-2 -4 -2 235.21 4.45
2 4 3 188.61 3.06
2 4 3 189.32 4.01
2 4 4 55.88 1.96
2 4 4 53.83 1.55
2 4 5 63.31 1.63
2 4 5 60.52 1.8
2 4 6 44.81 2.31
2 4 6 43.91 2.47
2 4 7 27.86 1.58
2 4 7 31.31 2.51
2 4 8 17.08 2.28
2 4 8 16.71 2.45
2 4 9 8.19 1.52
2 4 9 6.79 1.65
2 4 10 6.74 2.47
2 4 10 2.93 1.66
2 5 -12 18.74 3.22
2 5 -12 16.16 1.78
-2 -5 12 11.91 2.36
-2 -5 12 14.91 2.2
2 5 -11 8.06 2.93
2 5 -11 12.8 2.23
-2 -5 11 14.34 1.36
-2 -5 11 12.98 1.24
2 5 -10 6.82 2.48
2 5 -10 5.65 1.83
-2 -5 10 3.37 1.13
-2 -5 10 6.67 1.55
2 5 -9 4.59 1.44
2 5 -9 6.83 1.57
-2 -5 9 7.97 1.6
-2 -5 9 4.14 0.9
2 5 -8 28.13 2.35
2 5 -8 26.73 1.66
-2 -5 8 25.36 1.81
-2 -5 8 25.06 1.51
2 5 -7 157.88 3.41
2 5 -7 161.79 2.85
-2 -5 7 170.34 3.82
-2 -5 7 167.4 3.47
2 5 -6 183.91 4.28
2 5 -6 179.3 2.94
-2 -5 6 184.68 3.73
-2 -5 6 179.84 3.45
2 5 -5 49.85 1.96
2 5 -5 48.22 1.49
-2 -5 5 51.26 1.58
-2 -5 5 49.77 1.48
2 5 -4 271.25 5.06
2 5 -4 274.03 4.07
-2 -5 4 269.98 4.11
-2 -5 4 282.75 4.81
2 5 -3 84.39 1.97
2 5 -3 83 1.35
-2 -5 3 85.51 1.71
-2 -5 3 85.1 1.5
2 5 -2 204.25 3.39
2 5 -2 202.62 2.91
-2 -5 2 211.38 3.17
-2 -5 2 207.59 3.15
2 5 -1 120.81 2
2 5 -1 115.99 2.16
-2 -5 1 118.69 1.77
-2 -5 1 120.69 2.02
2 5 0 171.6 2.49
2 5 0 173.95 3.03
-2 -5 0 173.69 2.28
-2 -5 0 172.28 3.34
2 5 1 39.21 0.79
2 5 1 37.82 1
-2 -5 -1 38.8 0.68
-2 -5 -1 41.69 1.69
2 5 2 640.63 9.82
2 5 2 587.43 11.01
-2 -5 -2 607.2 9.14
-2 -5 -2 616 11.99
2 5 3 79.72 2.32
2 5 4 135.04 2.65
2 5 4 134.05 2.88
2 5 5 54.61 2.33
2 5 5 53.34 1.87
2 5 6 48.35 2.57
2 5 6 47.67 1.94
2 5 7 81.4 3.39
2 5 7 84.03 3.84
2 5 8 8.72 1.47
2 5 8 9.49 1.65
2 5 9 10.26 2.43
2 5 9 5.17 2.75
2 6 -11 30.66 3.62
2 6 -11 28.68 1.88
-2 -6 11 32.18 2.58
-2 -6 11 27.32 2.37
2 6 -10 17.83 2.04
2 6 -10 21.04 2.21
-2 -6 10 19.56 1.42
-2 -6 10 16.95 1.33
2 6 -9 53.65 3.39
2 6 -9 50.62 1.83
-2 -6 9 52.65 2.46
-2 -6 9 55.43 2.34
2 6 -8 34.58 2.75
2 6 -8 35.75 2.05
-2 -6 8 35.46 1.44
-2 -6 8 38.9 1.92
2 6 -7 18.83 1.43
2 6 -7 17.92 1.56
-2 -6 7 18.55 1.09
-2 -6 7 19.49 1.48
2 6 -6 23.97 1.95
2 6 -6 25.19 1.46
-2 -6 6 23.12 1.02
-2 -6 6 26.73 1.47
2 6 -5 13.5 1.56
2 6 -5 12.1 1.2
-2 -6 5 14.62 1.24
-2 -6 5 13.03 1.28
2 6 -4 201.56 4.13
2 6 -4 193.23 3.59
-2 -6 4 199.25 3.66
-2 -6 4 202.8 3.92
2 6 -3 128.63 2.77
2 6 -3 126.31 2.06
-2 -6 3 129.08 2.43
-2 -6 3 125.55 2.77
2 6 -2 194.34 3.52
2 6 -2 187.13 2.93
-2 -6 2 188.43 3.05
-2 -6 2 193.16 3.83
2 6 -1 147.06 2.6
2 6 -1 145.69 2.37
-2 -6 1 147.29 2.34
-2 -6 1 150.36 3.28
2 6 0 27.53 0.95
2 6 0 27.89 1.36
-2 -6 0 29.95 0.84
-2 -6 0 28.37 1.16
2 6 1 77.22 1.56
2 6 1 75.77 2.06
-2 -6 -1 75.76 1.39
-2 -6 -1 75.46 2.48
2 6 2 49.98 0.92
2 6 2 48.78 1.32
-2 -6 -2 50.54 0.85
-2 -6 -2 51.13 1.6
2 6 3 55.84 0.84
2 6 3 57.12 2.13
-2 -6 -3 59.3 2.56
2 6 4 46.74 1.53
2 6 4 48.89 2.58
2 6 5 30.6 2.18
2 6 5 29.04 2.5
2 6 6 90.57 3.53
2 6 6 94.59 4.08
2 6 7 12.99 1.47
2 6 7 16.53 1.72
2 6 8 12.22 2.51
2 6 8 19.92 2.94
2 6 9 12.41 2.61
2 6 9 7.99 1.91
2 7 -11 7.87 3.27
2 7 -11 11.3 2.5
-2 -7 11 5.09 2.28
-2 -7 11 8.39 2.14
2 7 -10 14.83 3.23
2 7 -10 16.31 2.38
-2 -7 10 17.15 1.46
-2 -7 10 12.84 2.11
2 7 -9 36.23 2.23
2 7 -9 38.81 2.49
-2 -7 9 36.26 2.48
-2 -7 9 35.86 2.27
2 7 -8 61.81 3.53
2 7 -8 61.45 2.72
-2 -7 8 63.18 2.74
-2 -7 8 64.48 2.61
2 7 -7 130.46 4.41
2 7 -7 123.36 2.68
-2 -7 7 130.65 3.57
-2 -7 7 129.87 3.51
2 7 -6 91.54 2.54
2 7 -6 100.08 2.81
-2 -7 6 103.16 2.85
-2 -7 6 96.7 2.85
2 7 -5 41.14 2.21
2 7 -5 43.44 1.83
-2 -7 5 43.38 1.77
-2 -7 5 48.32 1.97
2 7 -4 54.21 2.15
2 7 -4 54.14 1.35
-2 -7 4 55 1.73
-2 -7 4 53.27 1.52
2 7 -3 81.98 2.28
2 7 -3 74.37 2.1
-2 -7 3 76.46 1.86
-2 -7 3 76.29 1.76
2 7 -2 54.91 1.81
2 7 -2 54.98 1.33
-2 -7 2 52.82 1.09
-2 -7 2 55.92 2.15
2 7 -1 184.02 3.46
2 7 -1 181.6 3.77
-2 -7 1 187.32 3.08
-2 -7 1 181.57 3.5
2 7 0 10.9 0.94
2 7 0 13.71 1.35
-2 -7 0 11.32 0.77
-2 -7 0 10.42 1.1
2 7 1 127.55 2.21
2 7 1 128.29 3.13
-2 -7 -1 127.75 2.03
-2 -7 -1 123.69 3.61
2 7 2 76.67 1.41
2 7 2 81.01 2.55
-2 -7 -2 78.13 1.56
-2 -7 -2 80.46 3.07
2 7 3 37.3 2.03
-2 -7 -3 37.12 2.5
2 7 4 1.17 1.03
2 7 4 3.71 1.99
2 7 5 29.52 2.27
2 7 5 25.41 2.75
2 7 6 13.59 2.19
2 7 6 14.27 2.73
2 7 7 27.04 1.77
2 7 7 29.68 2.25
2 7 8 6.72 2.48
2 7 8 1.85 2.94
2 8 -10 4.69 3.04
2 8 -10 5.73 1.49
-2 -8 10 3.27 2.08
-2 -8 10 4.35 2.06
2 8 -9 26.71 3.21
2 8 -9 23.16 2.37
-2 -8 9 23.63 2.36
-2 -8 9 22.73 2.34
2 8 -8 1.22 1.59
2 8 -8 7.02 1.84
-2 -8 8 2.3 1.73
-2 -8 8 4.05 1.8
2 8 -7 46.55 3.17
2 8 -7 48.24 1.74
-2 -8 7 45.49 2.32
-2 -8 7 49.29 2.55
2 8 -6 26.54 2.38
2 8 -6 21.34 1.85
-2 -8 6 21.46 1.18
-2 -8 6 23.5 1.97
2 8 -5 61.94 2.75
2 8 -5 55.49 2.34
-2 -8 5 58.39 1.58
-2 -8 5 56.66 2.56
2 8 -4 184.95 4.61
2 8 -4 179.34 4.25
-2 -8 4 182.73 3.26
-2 -8 4 193.26 4.82
2 8 -3 59.98 2.31
2 8 -3 55.54 1.6
-2 -8 3 59.56 1.87
-2 -8 3 59.48 1.84
2 8 -2 245.2 5.12
2 8 -2 235.59 4.29
-2 -8 2 231.46 3.79
-2 -8 2 227.86 5.61
2 8 -1 18.69 1.37
2 8 -1 17.58 1.07
-2 -8 1 18.74 1.11
-2 -8 1 22.79 2.05
2 8 0 99.4 2.32
2 8 0 98.73 2.88
-2 -8 0 92.73 1.99
-2 -8 0 102.09 3.49
2 8 1 61.13 1.7
2 8 1 62.62 1.73
-2 -8 -1 61.6 1.54
-2 -8 -1 70.22 3.04
2 8 2 76.28 1.67
2 8 2 78.51 2.75
-2 -8 -2 76.75 1.94
-2 -8 -2 81.13 3.51
2 8 3 38.98 1.06
2 8 3 42.42 1.61
-2 -8 -3 40.31 1.01
-2 -8 -3 41.97 2.99
2 8 4 21 2.16
2 8 4 21.41 1.85
2 8 5 30.37 1.68
2 8 5 30.57 2.08
2 8 6 29.1 2.71
2 8 6 26.46 3.48
2 8 7 2.73 2.28
2 8 7 0.73 1.82
2 9 -9 7.64 1.95
2 9 -9 4.77 2.32
-2 -9 9 5.15 2.1
-2 -9 9 8.32 2.21
2 9 -8 10.42 2.8
2 9 -8 11.4 2.17
-2 -9 8 8.4 2.02
-2 -9 8 9.86 2.2
2 9 -7 27.93 2.87
2 9 -7 22.93 2.25
-2 -9 7 20.46 1.37
-2 -9 7 18.54 2.37
2 9 -6 12.9 2.39
2 9 -6 13.53 1.95
-2 -9 6 15.08 1.82
-2 -9 6 11.68 2.14
2 9 -5 8 1.98
2 9 -5 6.7 1.67
-2 -9 5 7.88 1.51
-2 -9 5 6.23 1.93
2 9 -4 22.07 2.04
2 9 -4 19.6 1.88
-2 -9 4 18.65 1.61
-2 -9 4 21.61 2.19
2 9 -3 40.19 2.22
2 9 -3 42.68 2.19
-2 -9 3 42.12 1.8
-2 -9 3 41.06 2.62
2 9 -2 51.94 1.61
2 9 -2 53.87 1.62
-2 -9 2 52.45 1.85
-2 -9 2 49.41 2.02
2 9 -1 48.47 2.04
2 9 -1 46.23 2.36
-2 -9 1 51.42 1.75
-2 -9 1 49.59 2.91
2 9 0 23.21 1.55
2 9 0 23.99 1.31
-2 -9 0 23.69 1.33
-2 -9 0 26.11 1.73
2 9 1 35.98 1.57
2 9 1 36.96 2.17
-2 -9 -1 34.72 1.44
-2 -9 -1 36.64 2.92
2 9 2 62.73 1.81
2 9 2 61.61 2.83
-2 -9 -2 59.51 1.67
-2 -9 -2 65.05 3.71
2 9 3 12.5 1.24
2 9 3 14.11 1.33
-2 -9 -3 13.92 2.83
2 9 4 33.47 2.61
2 9 4 32.6 2.31
2 9 5 45.05 2.98
2 9 5 38.35 3.76
2 9 6 20.26 2.75
2 9 6 23.34 2.31
2 10 -8 7.82 3.07
2 10 -8 6.12 1.6
-2 -10 8 7.23 2.16
-2 -10 8 9.49 2.46
2 10 -7 22.28 3.22
2 10 -7 22.72 2.58
-2 -10 7 24.48 1.54
-2 -10 7 23.32 2.79
2 10 -6 9.46 2.52
2 10 -6 8.06 2.03
-2 -10 6 5.18 1.83
-2 -10 6 6.84 2.29
2 10 -5 30.23 2.73
2 10 -5 34.88 2.36
-2 -10 5 25.31 2.08
-2 -10 5 26.94 1.82
2 10 -4 21.45 2.42
2 10 -4 23.32 1.48
-2 -10 4 21.29 1.25
-2 -10 4 22.81 2.63
2 10 -3 30.35 1.56
2 10 -3 28.74 2.24
-2 -10 3 31.15 1.86
-2 -10 3 27.06 2.78
2 10 -2 17.98 1.93
2 10 -2 15.96 1.35
-2 -10 2 18.31 1.07
-2 -10 2 15.24 1.73
2 10 -1 3.65 1.55
2 10 -1 0.94 1.76
-2 -10 1 1.87 1.25
-2 -10 1 2.7 2.19
2 10 0 20.35 1.78
2 10 0 24.04 2.15
-2 -10 0 20.69 1.58
-2 -10 0 22.62 2.95
2 10 1 21.69 1.65
2 10 1 24.43 2.33
-2 -10 -1 22.7 1.54
-2 -10 -1 23.91 3.1
2 10 2 18.9 1.46
2 10 2 21.49 2.3
-2 -10 -2 18.42 1.35
-2 -10 -2 22.21 3.22
2 10 3 7.77 2.24
-2 -10 -3 16.77 3.11
2 10 4 5.92 1.39
2 10 5 11.85 2.64
2 10 5 17.54 3.5
2 11 -6 11.48 1.86
2 11 -6 11.93 2.44
-2 -11 6 9.68 1.38
-2 -11 6 9.98 1.77
2 11 -5 12.96 1.74
2 11 -5 13.54 2.36
-2 -11 5 13.3 1.32
-2 -11 5 16.22 2.87
2 11 -4 23.12 2.69
2 11 -4 16.8 2.43
-2 -11 4 24.15 2.04
-2 -11 4 20.86 1.97
2 11 -3 18.31 2.4
2 11 -3 17.77 2.31
-2 -11 3 17.64 1.9
-2 -11 3 16.97 2.03
2 11 -2 17.38 2.25
2 11 -2 19.06 1.53
-2 -11 2 18.68 1.84
-2 -11 2 17.97 2.01
2 11 -1 11.71 1.35
2 11 -1 14.68 1.48
-2 -11 1 13.19 1.7
-2 -11 1 13.65 3.04
2 11 0 23.47 2.07
2 11 0 24 1.7
-2 -11 0 24.32 2
-2 -11 0 30.56 3.37
2 11 1 12.37 1.74
2 11 1 14.06 2.31
-2 -11 -1 10.27 2.2
-2 -11 -1 15.08 3.26
2 11 2 23.34 2.67
-2 -11 -2 28.15 2.44
2 11 3 -0.81 2.19
-2 -11 -3 2.11 3.07
2 12 -3 36.46 3.11
2 12 -3 32.11 3.04
-2 -12 3 32.88 2.44
2 12 -2 5.07 2.18
2 12 -2 2.63 2.28
-2 -12 2 1.97 1.82
-2 -12 2 0.74 2.98
2 12 -1 18.95 2.47
-2 -12 1 20.6 2.21
-2 -12 1 19.96 3.65
3 -12 -3 6.47 2.44
3 -12 -3 4.25 2.58
-3 12 3 4.18 1.89
-3 12 3 4.69 1.85
3 -12 -2 7.91 2.44
3 -12 -2 4.45 2.57
-3 12 2 4.82 1.96
-3 12 2 7.89 1.91
3 -12 -1 15.06 2.47
3 -12 -1 9.85 2.78
-3 12 1 10.82 2.21
-3 12 1 6.84 2.04
3 -12 0 6.29 1.5
3 -12 0 3.75 2.44
-3 12 0 4.56 1.37
-3 12 0 4.6 1.97
3 -12 1 14.09 2.54
3 -12 1 9.96 2.69
-3 12 -1 16.2 2.41
-3 12 -1 15.29 2.27
3 -12 2 5.4 1.55
3 -12 2 4.98 2.47
-3 12 -2 5.1 2.38
-3 12 -2 6.2 2.28
3 -12 3 15.65 2.69
3 -12 3 16.73 2.67
-3 12 -3 12.09 1.75
-3 12 -3 14.37 2.55
3 -11 -5 23.03 2.77
3 -11 -5 21.15 1.87
-3 11 5 22.33 2
-3 11 5 21.79 1.35
3 -11 -4 25.37 2.66
3 -11 -4 26.21 2.83
-3 11 4 21.33 2.06
-3 11 4 23.07 2.06
3 -11 -3 24.98 1.7
3 -11 -3 26.21 2.72
-3 11 3 25.06 2.08
-3 11 3 23.99 2.01
3 -11 -2 17.15 1.57
3 -11 -2 20.79 2.52
-3 11 2 19.6 1.98
-3 11 2 17.89 1.27
3 -11 -1 6.06 2.08
3 -11 -1 6.12 2.15
-3 11 1 4.05 1.75
-3 11 1 5.09 1.73
3 -11 0 17.73 1.56
3 -11 0 16.66 2.36
-3 11 0 16.21 1.38
-3 11 0 16.09 1.29
3 -11 1 17.15 2.2
3 -11 1 11.09 1.48
-3 11 -1 13.36 2.13
-3 11 -1 13.74 1.27
3 -11 2 5.68 1.35
3 -11 2 7.29 2.11
-3 11 -2 9.2 2.08
-3 11 -2 5.41 1.28
3 -11 3 11.25 2.2
3 -11 3 9.54 2.27
-3 11 -3 9.81 1.51
-3 11 -3 10.84 2.15
3 -11 4 9.38 1.54
3 -11 4 10.83 2.36
-3 11 -4 11.38 2.53
-3 11 -4 11.92 2.36
3 -11 5 13.49 1.64
3 -11 5 15.14 2.56
-3 11 -5 5.36 2.75
-3 11 -5 12.4 2.6
3 -11 6 4.15 2.35
3 -11 6 4.29 1.61
-3 11 -6 5.24 1.76
-3 11 -6 5.78 2.63
-3 10 7 12.21 2.09
-3 10 7 11.64 1.12
-3 10 7 12.38 1.69
-3 10 7 11.72 1.64
3 -10 -6 19.43 2.36
3 -10 -6 18.79 2.53
-3 10 6 15.8 1.73
-3 10 6 15.52 1.13
3 -10 -5 10.93 2.2
3 -10 -5 10.1 2.23
-3 10 5 9.89 1.62
-3 10 5 11.54 1.6
3 -10 -4 9.59 1.34
3 -10 -4 6.59 1.33
-3 10 4 10.12 1.59
-3 10 4 8.53 1.51
3 -10 -3 14.37 2.09
3 -10 -3 13.09 2.11
-3 10 3 14.8 1.67
-3 10 3 12.65 1.56
3 -10 -2 20.89 2.17
3 -10 -2 22.16 1.49
-3 10 2 21.07 1.2
-3 10 2 18.95 1.71
3 -10 -1 27.3 2.26
3 -10 -1 22.96 2.28
-3 10 1 24.62 1.92
-3 10 1 22.57 1.8
3 -10 0 97.81 3.48
3 -10 0 100.69 3.53
-3 10 0 93.85 3.19
-3 10 0 95.45 3.08
3 -10 1 7.9 1.23
3 -10 1 9.36 1.88
-3 10 -1 8.23 1.16
-3 10 -1 12.31 1.72
3 -10 2 31.77 1.57
3 -10 2 26.34 2.31
-3 10 -2 32.64 2.3
-3 10 -2 32.4 2.2
3 -10 3 21.75 2.18
3 -10 3 19.49 2.24
-3 10 -3 20.49 2.27
-3 10 -3 19.67 2.18
3 -10 4 5.67 1.24
3 -10 4 3.67 2
-3 10 -4 4.68 2.15
-3 10 -4 6.15 2.02
3 -10 5 15.23 1.5
3 -10 5 16.61 1.56
-3 10 -5 15.61 2.58
-3 10 -5 14.02 1.58
3 -10 6 1.85 1.33
3 -10 6 3.12 2.2
-3 10 -6 4.31 2.45
-3 10 -6 1.18 1.51
3 -10 7 5.69 2.26
3 -10 7 6.01 2.52
-3 10 -7 4.17 2.71
-3 10 -7 6.82 2.75
-3 9 8 10.05 2.01
-3 9 8 6.85 1.01
-3 9 8 6.72 1.5
-3 9 8 5.48 2.25
-3 9 7 20.85 2.14
-3 9 7 18.79 1.71
-3 9 7 17.13 1.69
-3 9 7 19.45 2.34
3 -9 -6 13.64 1.99
3 -9 -6 10.99 2.03
-3 9 6 10.38 1.51
-3 9 6 8.72 1.43
3 -9 -5 16.01 2.01
3 -9 -5 16.98 2
-3 9 5 14.59 1.55
-3 9 5 14.63 0.96
3 -9 -4 44.65 1.7
3 -9 -4 45.47 2.41
-3 9 4 42.98 1.97
-3 9 4 42.37 1.27
3 -9 -3 15.82 1.84
3 -9 -3 14.19 1.77
-3 9 3 13.09 0.97
-3 9 3 13.35 1.35
3 -9 -2 8.16 1.76
3 -9 -2 9.26 1.67
-3 9 2 10.14 1.43
-3 9 2 11.17 1.3
3 -9 -1 35.05 2.09
3 -9 -1 34.04 1.42
-3 9 1 34.31 1.85
-3 9 1 35.44 1.21
3 -9 0 48.62 2.44
3 -9 0 55.59 2.36
-3 9 0 51.96 2.18
-3 9 0 55.07 2.1
3 -9 1 109.25 3.34
3 -9 1 116.74 3.25
-3 9 -1 109.22 3.19
-3 9 -1 105.4 2.32
3 -9 2 32.97 1.46
3 -9 2 32.63 1.4
-3 9 -2 35.77 2.06
-3 9 -2 32.09 2.04
3 -9 3 49.75 2.47
3 -9 3 52.92 2.46
-3 9 -3 48.37 2.54
-3 9 -3 45.54 1.68
3 -9 4 29.14 1.46
3 -9 4 27.82 2.21
-3 9 -4 28.66 2.35
-3 9 -4 28.88 2.3
3 -9 5 18.34 1.4
3 -9 5 18.23 2.23
-3 9 -5 16.8 2.32
-3 9 -5 17.82 2.25
3 -9 6 15.04 1.38
3 -9 6 14.73 1.51
-3 9 -6 17.49 1.62
-3 9 -6 14.72 1.66
3 -9 7 0.76 1.92
3 -9 7 4.41 1.41
-3 9 -7 1.69 1.54
-3 9 -7 2.89 1.52
3 -9 8 6.33 2.22
3 -9 8 7.68 2.56
-3 9 -8 7.54 2.75
-3 9 -8 9.84 3
-3 8 9 13.85 2.11
-3 8 9 12.72 1.69
-3 8 9 12.6 1.68
-3 8 9 15.74 2.21
-3 8 8 14.27 1.96
-3 8 8 14.25 1.63
-3 8 8 12.91 1.54
-3 8 8 14.76 2.12
-3 8 7 14.5 1.25
-3 8 7 14.08 1.52
-3 8 7 15.97 1.44
-3 8 7 15.18 1.9
3 -8 -6 4.96 1.06
3 -8 -6 4.78 1.58
-3 8 6 3.24 1.28
-3 8 6 3.57 1.16
3 -8 -5 46.27 2.29
3 -8 -5 45.52 2.16
-3 8 5 40.7 1.28
-3 8 5 43.16 1.63
3 -8 -4 3.46 1.5
3 -8 -4 1.12 1.36
-3 8 4 4.2 1.17
-3 8 4 1.01 1.02
3 -8 -3 55.16 2.22
3 -8 -3 53.99 2.1
-3 8 3 54.17 1.92
-3 8 3 52.28 1.64
3 -8 -2 32.15 1.29
3 -8 -2 34.55 1.72
-3 8 2 32.81 1.61
-3 8 2 31.36 0.97
3 -8 -1 33.48 1.3
3 -8 -1 34.88 1.75
-3 8 1 35.75 1.68
-3 8 1 33.91 1.5
3 -8 0 208.99 3.79
3 -8 0 207.75 4.44
-3 8 0 200.74 4.31
-3 8 0 200.31 4.1
3 -8 1 29.9 1.73
3 -8 1 24.57 1.09
-3 8 -1 26.92 1.65
-3 8 -1 26.7 1.55
3 -8 2 83.9 2.55
3 -8 2 78.92 2.41
-3 8 -2 78.06 1.85
-3 8 -2 76.51 2.42
3 -8 3 18.27 1.74
3 -8 3 17.35 1.1
-3 8 -3 18.69 1.78
-3 8 -3 15.91 1.14
3 -8 4 43.12 1.49
3 -8 4 43.73 1.54
-3 8 -4 45.51 2.3
-3 8 -4 42.73 2.3
3 -8 5 75.81 2.04
3 -8 5 81.21 3
-3 8 -5 75.59 2.19
-3 8 -5 76.81 3.13
3 -8 6 16.38 1.27
3 -8 6 15.77 2.13
-3 8 -6 15.83 2.31
-3 8 -6 17.99 1.53
3 -8 7 32.24 2.32
3 -8 7 29.29 2.64
-3 8 -7 29.1 1.87
-3 8 -7 35.24 2.87
3 -8 8 11.99 2.06
3 -8 8 9.47 1.58
-3 8 -8 12.86 2.54
-3 8 -8 9.87 2.78
3 -8 9 3.76 1.32
3 -8 9 9.25 2.41
-3 8 -9 6.61 2.63
-3 8 -9 5.18 2.87
-3 7 10 10.56 1.99
-3 7 10 10.21 1.72
-3 7 10 9.06 1.62
-3 7 10 10.18 1.99
-3 7 9 18.53 2.01
-3 7 9 17.88 1.71
-3 7 9 16.18 1.57
-3 7 9 18.23 2.01
-3 7 8 19.92 1.26
-3 7 8 19.46 1.67
-3 7 8 17.87 1.47
-3 7 8 22.64 1.89
-3 7 7 11.73 1.1
-3 7 7 10.23 1.38
-3 7 7 13.22 1.22
-3 7 7 9.56 1.58
-3 7 6 34.82 1.35
-3 7 6 35.65 1.68
-3 7 6 34.67 1.41
-3 7 6 36.46 1.86
3 -7 -5 21.97 1.18
3 -7 -5 23.61 1.54
-3 7 5 22.6 1.44
-3 7 5 21.41 1.16
3 -7 -4 192.57 3.49
3 -7 -4 187.16 3.9
-3 7 4 185.38 3.77
-3 7 4 185.19 3.32
3 -7 -3 73.44 1.71
3 -7 -3 72.58 1.56
-3 7 3 76.29 1.99
-3 7 3 69.95 1.68
3 -7 -2 67.37 2.12
3 -7 -2 63.52 1.38
-3 7 2 64.03 1.88
-3 7 2 62.77 1.57
3 -7 -1 136.3 2.48
3 -7 -1 135.55 2.82
-3 7 1 133.92 2.31
-3 7 1 129.3 2.1
3 -7 0 39.84 1.71
3 -7 0 39.18 1.08
-3 7 0 40.29 1.57
-3 7 0 39.22 1.41
3 -7 1 31.86 1.45
-3 7 -1 32.75 1.06
-3 7 -1 32.54 1.4
3 -7 2 38.77 1.7
3 -7 2 37.34 1.62
-3 7 -2 35.86 1.66
-3 7 -2 37.53 1.62
3 -7 3 1.46 0.76
3 -7 3 1.72 1.18
-3 7 -3 0.48 1.24
-3 7 -3 0.5 0.78
3 -7 4 48.85 1.98
3 -7 4 50.61 1.45
-3 7 -4 47.43 1.5
-3 7 -4 47.97 2.18
3 -7 5 0.34 0.87
3 -7 5 1.9 1.47
-3 7 -5 -1.44 1.52
-3 7 -5 1.99 1.63
3 -7 6 53.01 2.29
3 -7 6 49.93 2.56
-3 7 -6 49.33 2.62
-3 7 -6 53.72 2.76
3 -7 7 8.12 1.69
3 -7 7 5.4 2.03
-3 7 -7 7.27 1.33
-3 7 -7 11.12 2.28
3 -7 8 14.09 1.94
3 -7 8 13.21 1.57
-3 7 -8 12.95 2.38
-3 7 -8 16.66 1.74
3 -7 9 9.69 1.9
3 -7 9 4.65 1.54
-3 7 -9 6.71 2.49
-3 7 -9 6.78 1.73
-3 6 11 13.09 2.04
-3 6 11 10.14 1.9
-3 6 11 11.92 1.73
-3 6 11 13.19 1.97
-3 6 10 12.91 1.95
-3 6 10 13.14 1.77
-3 6 10 11.22 1.51
-3 6 10 12.24 1.87
-3 6 9 27.85 2.04
-3 6 9 26.2 1.87
-3 6 9 27.2 1.55
-3 6 9 27.16 1.86
-3 6 8 14.59 1.65
-3 6 8 13.11 1.53
-3 6 8 12.52 1.2
-3 6 8 13.47 1.51
-3 6 7 9.64 1.44
-3 6 7 6.14 0.86
-3 6 7 6.79 0.98
-3 6 7 7.49 1.29
-3 6 6 44.55 1.9
-3 6 6 41.3 1.78
-3 6 6 43.37 1.33
-3 6 6 45.93 1.67
3 -6 -5 193.08 4.15
3 -6 -5 191.36 3.73
-3 6 5 194.98 3.86
-3 6 5 190.11 2.77
3 -6 -4 23.64 1.03
3 -6 -4 26.11 1.22
-3 6 4 26.64 1.35
-3 6 4 24.06 0.95
3 -6 -3 364.47 6.17
3 -6 -3 378.35 6.57
-3 6 3 365.05 6.05
-3 6 3 362.83 5.75
3 -6 -2 28.19 1.02
3 -6 -2 27.87 1.16
-3 6 2 28.87 1.3
-3 6 2 27.56 0.69
3 -6 -1 536.32 10.24
3 -6 -1 521.76 8.84
-3 6 1 535.82 9.96
-3 6 1 515.53 9.09
3 -6 0 156 2.52
3 -6 0 146.95 2.27
-3 6 0 154.64 2.91
-3 6 0 151.67 2.61
3 -6 1 41.31 1.08
3 -6 1 41.55 1
-3 6 -1 41.57 1.45
-3 6 -1 40.67 0.97
3 -6 2 198.17 3.82
3 -6 2 202.63 3.71
-3 6 -2 196.81 3.72
-3 6 -2 193.3 3.16
3 -6 3 225.55 4.31
3 -6 3 220.74 4.27
-3 6 -3 218.58 4.32
-3 6 -3 213.72 3.64
3 -6 4 72.76 2.16
3 -6 4 80.42 2.32
-3 6 -4 75.17 2.33
-3 6 -4 77.67 2.49
3 -6 5 46.48 1.84
3 -6 5 47.22 1.48
-3 6 -5 45.58 2.02
-3 6 -5 46.95 1.56
3 -6 6 5.56 1.37
3 -6 6 4.4 1.64
-3 6 -6 4.17 1.58
-3 6 -6 4.79 1.84
3 -6 7 -0.67 0.89
3 -6 7 1.31 1.66
-3 6 -7 1.51 1.03
-3 6 -7 2.47 1.9
3 -6 8 13.45 1.77
3 -6 8 14.13 2.22
-3 6 -8 14.93 2.18
-3 6 -8 19.79 2.4
3 -6 9 0.72 1.59
3 -6 9 3.95 2.08
-3 6 -9 0.61 2.05
-3 6 -9 -1.25 2.48
3 -6 10 0.74 1.74
3 -6 10 3.21 2.32
-3 6 -10 1.45 1.55
-3 6 -10 -1.12 2.71
-3 5 11 2.96 1.75
-3 5 11 2.1 1.74
-3 5 11 1.17 1.4
-3 5 11 0.87 1.59
-3 5 10 3.45 1.63
-3 5 10 3.1 1.6
-3 5 10 0.35 1.24
-3 5 10 3.21 1.39
-3 5 9 27.85 1.91
-3 5 9 25.38 1.82
-3 5 9 21.52 1.4
-3 5 9 24.57 1.63
-3 5 8 0.96 1.36
-3 5 8 1.11 0.84
-3 5 8 0.44 0.92
-3 5 8 1.84 1.09
-3 5 7 81.3 1.86
-3 5 7 80.62 2.36
-3 5 7 82.42 1.76
-3 5 7 85.97 2.12
-3 5 6 88.37 1.85
-3 5 6 88.98 1.81
-3 5 6 88.62 1.7
-3 5 6 91.12 1.98
3 -5 -5 129.41 2.36
3 -5 -5 126.16 2.33
-3 5 5 127.55 2.73
-3 5 5 135.05 2.1
3 -5 -4 151.67 3.11
3 -5 -4 150.57 2.48
-3 5 4 145.39 2.86
-3 5 4 152.22 2.22
3 -5 -3 35.73 1.45
3 -5 -3 39.4 1.05
-3 5 3 36 1.35
-3 5 3 36.49 0.86
3 -5 -2 47.91 1.11
3 -5 -2 45.68 0.83
-3 5 2 46.47 1.37
-3 5 2 47.47 0.98
3 -5 -1 359.55 5.74
3 -5 -1 368.42 5.78
-3 5 1 377.15 6.32
-3 5 1 376.98 5.7
3 -5 0 51.71 1.52
3 -5 0 51.36 1.22
-3 5 0 51.04 1.06
-3 5 0 51.28 1.2
3 -5 1 420.1 6.79
3 -5 1 424.4 6.56
-3 5 -1 434.76 7.41
-3 5 -1 429.33 7.18
3 -5 2 290.18 4.98
3 -5 2 288.49 4.89
-3 5 -2 280.78 4.37
-3 5 -2 278.82 4.9
3 -5 3 174.9 2.77
3 -5 3 178.15 3.35
-3 5 -3 175.01 3.3
-3 5 -3 168.31 3.38
3 -5 4 181.83 3.51
3 -5 4 190.3 3.84
-3 5 -4 186.86 3.11
-3 5 -4 182.02 3.2
3 -5 5 68.4 1.48
3 -5 5 71.93 2.34
-3 5 -5 70.95 2.17
-3 5 -5 71.07 2.5
3 -5 6 65.24 1.54
3 -5 6 66.34 1.83
-3 5 -6 69.26 2.38
-3 5 -6 66.04 2.7
3 -5 7 47.61 1.96
3 -5 7 49.46 2.56
-3 5 -7 46.47 2.35
-3 5 -7 56.31 2.74
3 -5 8 9 0.98
3 -5 8 11.52 2.04
-3 5 -8 10.25 1.93
-3 5 -8 9.29 2.32
3 -5 9 23.05 1.83
3 -5 9 23.78 2.54
-3 5 -9 25.18 2.48
-3 5 -9 18.79 2.97
3 -5 10 3.2 1.6
3 -5 10 3.28 2.28
-3 5 -10 1.31 2.25
-3 5 -10 3.19 2.65
-3 4 12 8.91 1.85
-3 4 12 11.38 2.12
-3 4 12 7.12 2.23
-3 4 12 8.87 1.8
-3 4 11 15.23 1.98
-3 4 11 14.78 2.02
-3 4 11 14.53 1.58
-3 4 11 14.41 1.67
-3 4 10 48.33 2.4
-3 4 10 44.38 2.4
-3 4 10 43.45 1.81
-3 4 10 47.43 1.95
-3 4 9 16.72 1.15
-3 4 9 18.35 1.73
-3 4 9 18.38 1.23
-3 4 9 18.69 1.32
-3 4 8 19.69 1.61
-3 4 8 20.64 1.6
-3 4 8 21.78 1.37
-3 4 8 21.23 1.22
-3 4 7 -0.31 0.77
-3 4 7 1.54 1.19
-3 4 7 1.72 0.91
-3 4 7 0.65 0.79
-3 4 6 245.93 4.74
-3 4 6 243.94 4.73
-3 4 6 237.01 3.78
-3 4 6 246.58 3.86
-3 4 5 48.52 1.2
-3 4 5 48 1.59
-3 4 5 48.8 0.91
-3 4 5 47.45 1.07
3 -4 -4 101.2 1.74
3 -4 -4 102.5 1.56
-3 4 4 103.44 2.14
-3 4 4 105.13 1.38
3 -4 -3 109.02 2.21
3 -4 -3 109.95 1.59
-3 4 3 107.9 2.13
-3 4 3 109.94 1.39
3 -4 -2 116.04 1.8
3 -4 -2 115.43 1.63
-3 4 2 120.35 2.17
-3 4 2 121.39 1.57
3 -4 -1 708.3 13.24
3 -4 -1 696.81 11.85
-3 4 1 706.93 12.95
-3 4 1 703.01 11.85
3 -4 0 121.32 2.16
3 -4 0 122.81 1.8
-3 4 0 123.31 2.08
-3 4 0 120.99 1.84
3 -4 1 75.6 1.58
3 -4 1 74.26 1.39
-3 4 -1 72.13 1.49
-3 4 -1 72.84 1.44
3 -4 2 63.73 1.45
3 -4 2 61.73 1.12
-3 4 -2 63.92 1.15
-3 4 -2 64.21 1.17
3 -4 3 258.77 3.86
3 -4 3 263.65 4.04
-3 4 -3 263.72 3.95
-3 4 -3 262.31 4.73
3 -4 4 96.87 1.6
3 -4 4 100.6 2.36
-3 4 -4 94.59 1.65
-3 4 -4 92.29 1.85
3 -4 5 71.22 1.82
3 -4 5 71.22 2.28
-3 4 -5 75.14 2.02
-3 4 -5 72.45 2.42
3 -4 6 45.53 1.61
3 -4 6 46.74 2.17
-3 4 -6 49.69 1.9
-3 4 -6 48.77 2.38
3 -4 7 0.05 0.69
3 -4 7 0.48 1.6
-3 4 -7 2.11 1.33
-3 4 -7 3.18 1.77
3 -4 8 78.49 2.41
3 -4 8 77.58 3.35
-3 4 -8 80 2.96
-3 4 -8 80.14 2.63
3 -4 9 5.23 1.42
3 -4 9 10.88 2.17
-3 4 -9 7.89 1.95
-3 4 -9 6.46 2.44
3 -4 10 11.23 1.61
3 -4 10 12.71 2.56
-3 4 -10 12.34 2.41
-3 4 -10 16.5 2.84
-3 3 12 9.96 1.89
-3 3 12 13.01 2.21
-3 3 12 9.18 1.71
-3 3 12 8.07 1.67
-3 3 11 4.61 1.68
-3 3 11 4.31 1.87
-3 3 11 2.46 1.36
-3 3 11 4.61 1.4
-3 3 10 44.38 2.28
-3 3 10 40.07 2.47
-3 3 10 43.3 1.71
-3 3 10 44.55 1.78
-3 3 9 93.58 2.83
-3 3 9 89.74 2.98
-3 3 9 90.59 2.11
-3 3 9 91.36 2.24
-3 3 8 50.02 2.01
-3 3 8 49.53 2.09
-3 3 8 50.99 1.35
-3 3 8 52.07 1.43
-3 3 7 292.4 5.83
-3 3 7 278.61 5.02
-3 3 7 287 4.69
-3 3 7 299.15 5.07
-3 3 6 146.83 3.06
-3 3 6 144.2 2.55
-3 3 6 149.72 2.07
-3 3 6 152.54 2.44
-3 3 5 132.04 2.19
-3 3 5 132.74 2.65
-3 3 5 134.01 1.65
-3 3 5 135.86 2.01
-3 3 4 144.85 2.67
-3 3 4 144.84 1.6
-3 3 4 147.43 1.78
3 -3 -3 131.71 2.41
3 -3 -3 130.42 1.62
-3 3 3 124.12 2.27
-3 3 3 129.17 1.48
3 -3 -2 510.91 8.63
3 -3 -2 494.9 6.82
-3 3 2 477.85 7.57
-3 3 2 496.99 6.91
3 -3 -1 510.52 8.58
3 -3 -1 510.07 7.33
-3 3 1 507.51 8.3
-3 3 1 508.26 7.31
3 -3 0 288.93 3.98
3 -3 0 277.47 3.71
-3 3 0 280.32 4.15
-3 3 0 276.49 3.8
3 -3 1 359.91 5.5
3 -3 1 353.01 4.92
-3 3 -1 346.61 5.24
-3 3 -1 346.32 5.28
3 -3 2 85.94 1.56
3 -3 2 80.59 1.6
-3 3 -2 83.58 1.5
-3 3 -2 86.18 1.73
3 -3 3 42.77 1.11
3 -3 3 40.44 1.38
-3 3 -3 42.41 1.12
-3 3 -3 41.91 1.43
3 -3 4 23.27 0.67
3 -3 4 24.22 0.92
-3 3 -4 22.69 1.03
-3 3 -4 23.32 1.42
3 -3 5 102.33 2.02
3 -3 5 102.58 2.65
-3 3 -5 105.59 2.22
-3 3 -5 106.06 2.9
3 -3 6 39.79 1.32
3 -3 6 41.15 2.05
-3 3 -6 40.83 1.62
-3 3 -6 44.67 2.21
3 -3 7 39.99 1.48
3 -3 7 42.67 1.55
-3 3 -7 42.94 1.8
-3 3 -7 40.94 1.7
3 -3 8 21.2 1.38
3 -3 8 21.15 2.28
-3 3 -8 24.13 1.81
-3 3 -8 19.05 2.52
3 -3 9 8.97 1.35
3 -3 9 9.45 1.42
-3 3 -9 8.63 1.85
-3 3 -9 7.85 2.44
3 -3 10 4.48 0.92
3 -3 10 5.35 2.34
-3 3 -10 6.25 2
-3 3 -10 5.43 2.68
3 -3 11 3.57 1.49
3 -3 11 4.22 2.51
-3 3 -11 4.91 2.34
-3 3 -11 0.07 2.98
-3 2 12 11.81 1.87
-3 2 12 7.54 1.49
-3 2 12 7.58 1.67
-3 2 12 8.3 1.59
-3 2 11 5.71 1.1
-3 2 11 6.77 1.99
-3 2 11 6.43 1.38
-3 2 11 6.73 1.31
-3 2 10 40.03 2.2
-3 2 10 39.88 2.42
-3 2 10 40.23 1.63
-3 2 10 37.85 1.56
-3 2 9 19.44 1.74
-3 2 9 21.13 1.93
-3 2 9 22.63 1.52
-3 2 9 23.85 1.17
-3 2 8 8.51 0.94
-3 2 8 11.19 1.55
-3 2 8 10 0.85
-3 2 8 9.33 0.79
-3 2 7 108.19 2.05
-3 2 7 107.95 2.79
-3 2 7 108.95 1.72
-3 2 7 106.43 1.95
-3 2 6 455.16 8.59
-3 2 6 459.9 8.84
-3 2 6 445.3 6.44
-3 2 6 462 6.7
-3 2 5 417.82 7.38
-3 2 5 414.87 7.55
-3 2 5 402.73 5.35
-3 2 5 420.61 5.63
-3 2 4 798.89 15.6
-3 2 4 778.86 15.34
-3 2 4 772.01 11.61
-3 2 4 800.64 12.29
3 -2 -3 316.57 4.67
3 -2 -3 319.24 3.44
-3 2 3 316.87 5.1
-3 2 3 317.02 3.32
3 -2 -2 505.11 8.29
3 -2 -2 485.72 6.15
-3 2 2 480.75 7.42
-3 2 2 490.23 6.27
3 -2 -1 361.24 5.5
3 -2 -1 367.75 4.53
-3 2 1 355.84 5.03
-3 2 1 370.11 4.65
3 -2 0 610.28 9.8
3 -2 0 618.52 9.63
-3 2 0 597.19 9.45
-3 2 0 621.76 9.79
3 -2 1 345.86 4.76
3 -2 1 346.99 5.04
-3 2 -1 349.54 4.99
-3 2 -1 347.33 5.2
3 -2 2 317.55 4.65
3 -2 2 309.93 4.45
-3 2 -2 325.91 4.61
-3 2 -2 308.76 4.6
3 -2 3 377.39 5.64
3 -2 3 378.25 6.54
-3 2 -3 372.57 5.61
-3 2 -3 371.94 6.55
3 -2 4 87.85 1.53
3 -2 4 90.44 2.18
-3 2 -4 87.14 1.59
-3 2 -4 91.18 1.73
3 -2 5 55.87 1.27
3 -2 5 58.55 2.03
-3 2 -5 57.32 1.41
-3 2 -5 63.55 2.12
3 -2 6 8.23 0.83
3 -2 6 8.24 0.97
-3 2 -6 9.15 1.03
-3 2 -6 9.37 1.59
3 -2 7 1.63 0.81
3 -2 7 1.39 1.55
-3 2 -7 2.62 1.1
-3 2 -7 1.06 1.1
3 -2 8 57.8 1.72
3 -2 8 59.9 2.92
-3 2 -8 58.64 2.17
-3 2 -8 58.66 3.2
3 -2 9 7.33 1.18
3 -2 9 9.93 1.41
-3 2 -9 7.98 1.65
-3 2 -9 10.23 1.61
3 -2 10 7.09 1.3
3 -2 10 7.37 1.62
-3 2 -10 8.85 1.91
-3 2 -10 5.31 2.72
3 -2 11 4.84 1.46
3 -2 11 4.26 1.69
-3 2 -11 8.78 2.07
-3 2 -11 5.8 3.06
-3 1 12 8.84 1.25
-3 1 12 12.38 2.41
-3 1 12 9.64 1.72
-3 1 12 7.6 1.5
-3 1 11 10.48 1.82
-3 1 11 11.57 1.43
-3 1 11 10.89 1.49
-3 1 11 11.08 1.33
3 -1 -10 67.4 2.1
-3 1 10 67.97 2.64
-3 1 10 72.22 2
3 -1 -9 10.35 1.71
3 -1 -9 9.75 1.35
-3 1 9 9.24 1
-3 1 9 10.4 0.96
3 -1 -8 73.2 2.49
3 -1 -8 74.99 1.59
-3 1 8 76.93 2.28
-3 1 8 74.69 1.45
3 -1 -7 127.38 3.04
3 -1 -7 126.22 1.93
-3 1 7 124.81 2.25
-3 1 7 126.44 1.8
3 -1 -6 117.93 2.15
3 -1 -6 125.82 1.8
-3 1 6 124.06 2.11
-3 1 6 126.66 1.7
-3 1 5 98.76 1.71
-3 1 5 102.04 1.81
-3 1 5 102.94 1.21
-3 1 5 106 1.16
-3 1 4 235.12 2.13
-3 1 4 239.47 2.11
-3 1 3 885.16 17.09
-3 1 3 850.26 16.01
3 -1 -2 260.58 2.56
-3 1 2 254.83 3.79
3 -1 -1 614.46 10.33
3 -1 -1 629.88 9.16
-3 1 1 614.91 10.17
-3 1 1 631.05 9.22
3 -1 0 125.61 1.57
3 -1 0 123.64 1.65
-3 1 0 127.67 1.8
-3 1 0 127.26 1.73
3 -1 1 424.16 6.13
3 -1 1 411 5.94
-3 1 -1 419.63 5.92
-3 1 -1 406.33 5.96
3 -1 2 308.59 4.21
3 -1 2 301.83 4.82
-3 1 -2 311.91 4.14
-3 1 -2 317.79 4.62
3 -1 3 303.64 4.12
3 -1 3 295.81 5.06
-3 1 -3 293 3.99
-3 1 -3 295.96 5.11
3 -1 4 101.39 1.49
3 -1 4 98.64 2.33
-3 1 -4 95.13 1.51
-3 1 -4 96.37 2.31
3 -1 5 180.46 2.6
3 -1 5 171.47 3.94
-3 1 -5 168.13 3.03
-3 1 -5 178.78 3.94
3 -1 6 37.11 1.01
3 -1 6 36.58 1.97
-3 1 -6 38 1.18
-3 1 -6 38.91 2.02
3 -1 7 54.04 1.33
3 -1 7 51.8 2.61
-3 1 -7 52.49 1.61
-3 1 -7 55.76 2.73
3 -1 8 23.06 1.09
3 -1 8 25.62 2.34
-3 1 -8 23.95 1.46
-3 1 -8 23.2 2.48
3 -1 9 0.52 0.92
3 -1 9 3.94 2.05
-3 1 -9 2.09 1.31
-3 1 -9 -0.4 2.19
3 -1 10 7.36 1.18
3 -1 10 8.76 2.38
-3 1 -10 6.3 1.6
-3 1 -10 8.36 2.7
3 -1 11 1.53 1.56
-3 1 -11 2.83 1.8
3 0 -13 2.72 1.68
3 0 -13 4.77 1.94
-3 0 13 4 2
-3 0 13 2.7 1.56
3 0 -12 15.82 2.59
3 0 -12 14.86 1.87
-3 0 12 12.9 2
-3 0 12 12.53 1.57
3 0 -11 22.08 1.64
3 0 -11 19.99 1.72
-3 0 11 19.8 1.98
-3 0 11 20.68 1.47
3 0 -10 33.74 1.67
3 0 -10 35.98 1.67
-3 0 10 40.95 2.13
-3 0 10 39.55 1.53
3 0 -9 57.29 2.54
3 0 -9 57.65 2.08
-3 0 9 57.46 2.2
-3 0 9 60.64 1.54
3 0 -8 40.76 1.41
3 0 -8 41.7 1.25
-3 0 8 41.19 1.85
-3 0 8 43.29 1.1
3 0 -7 305.3 6.22
3 0 -7 305.46 4.62
-3 0 7 300.47 5.1
-3 0 7 312.11 4.39
3 0 -6 181.15 3.1
3 0 -6 185.93 2.63
-3 0 6 184.88 3.49
-3 0 6 193.18 2.49
3 0 -5 288.53 5.09
3 0 -5 286.86 3.57
-3 0 5 283.37 4.31
-3 0 5 285.2 3.36
3 0 -4 90.97 1.92
3 0 -4 91.24 0.93
-3 0 4 91.96 1.87
-3 0 4 94.48 0.96
3 0 -3 287.53 4.49
-3 0 3 279.35 4.31
-3 0 3 279.21 2.95
3 0 -2 390.84 4.71
3 0 -2 383.26 4.73
-3 0 2 405.37 6.13
-3 0 2 395.16 6.02
3 0 -1 1064.15 19.5
3 0 -1 1037.14 19.51
-3 0 1 1033.84 20.32
-3 0 1 1033.82 20.17
3 0 0 1014.78 19.58
-3 0 0 1015.74 19.17
-3 0 0 1025.25 19.71
3 0 1 312.21 4.04
3 0 1 296.9 4.14
-3 0 -1 298.24 3.76
-3 0 -1 302.12 4.56
3 0 2 64.49 1.06
3 0 2 66.02 1.52
-3 0 -2 65.29 0.95
-3 0 -2 66.04 1.56
3 0 3 181.59 2.36
3 0 3 174.67 3.32
-3 0 -3 178.81 2.14
-3 0 -3 177.05 2.77
3 0 4 0.46 0.36
3 0 4 0.79 0.67
-3 0 -4 -0.46 0.41
-3 0 -4 0.46 1.12
3 0 5 93.08 1.33
3 0 5 88.05 2.62
-3 0 -5 88.39 1.41
-3 0 -5 92.34 2.71
3 0 6 1.33 0.5
3 0 6 2.29 1.47
-3 0 -6 2.19 0.86
-3 0 -6 2.3 0.99
3 0 7 126.96 2.31
3 0 7 119.99 2.94
-3 0 -7 121.04 2.32
-3 0 -7 126.33 4.02
3 0 8 31.39 1.05
3 0 8 31.35 2.56
-3 0 -8 31.38 1.67
-3 0 -8 29.34 2.61
3 0 9 30.54 1.49
3 0 9 31.36 1.86
-3 0 -9 30.49 1.56
-3 0 -9 34.75 2.91
3 0 10 0.32 2.3
-3 0 -10 0.62 1.22
-3 0 -10 8.01 2.49
3 0 11 10.92 2.74
-3 0 -11 6.84 3.12
3 1 -13 11.41 2.79
3 1 -13 7.08 1.38
-3 -1 13 9.63 2.15
-3 -1 13 8.43 1.7
3 1 -12 14.62 2.69
3 1 -12 15.47 2
-3 -1 12 14.5 1.36
-3 -1 12 13.29 1.59
3 1 -11 31.55 2.77
3 1 -11 30.09 1.98
-3 -1 11 30.05 2.17
-3 -1 11 31.94 1.66
3 1 -10 97.99 3.61
3 1 -10 95.02 2.65
-3 -1 10 93.11 3.09
-3 -1 10 91.92 2.26
3 1 -9 13.47 1.9
3 1 -9 13.05 1.15
-3 -1 9 12.96 1.61
-3 -1 9 10.2 0.99
3 1 -8 246.44 5.6
3 1 -8 246.41 4.19
-3 -1 8 240.02 4.28
-3 -1 8 247.81 3.89
3 1 -7 109.5 2.93
3 1 -7 115.06 1.95
-3 -1 7 111.23 2.12
-3 -1 7 111.47 1.71
3 1 -6 272.54 4.57
3 1 -6 282.09 3.92
-3 -1 6 278.44 5.07
-3 -1 6 285.06 3.74
3 1 -5 1.41 0.99
3 1 -5 0.7 0.37
-3 -1 5 1.64 0.93
-3 -1 5 0.67 0.34
3 1 -4 192.83 2.92
3 1 -4 206.2 2.32
-3 -1 4 206.85 3.46
-3 -1 4 204.47 2.32
3 1 -3 357.55 5.71
3 1 -3 362.53 4.54
-3 -1 3 371.94 5.82
-3 -1 3 357.65 4.67
3 1 -2 501.84 8.02
3 1 -2 492.72 6.79
-3 -1 2 501.09 7.98
-3 -1 2 495.88 7.08
3 1 -1 814.77 13.95
-3 -1 1 799.37 13.73
3 1 0 275.98 3.98
3 1 0 282.79 4.11
-3 -1 0 295.91 3.76
-3 -1 0 278.46 3.6
3 1 1 1.57 0.46
3 1 1 1.74 0.73
-3 -1 -1 0.95 0.4
-3 -1 -1 1.17 0.29
3 1 2 521.21 7.17
3 1 2 499.9 8.41
-3 -1 -2 521.92 6.92
-3 -1 -2 513.9 9.19
3 1 3 64.23 0.8
3 1 3 65.1 1.79
-3 -1 -3 64.64 0.76
-3 -1 -3 64.19 1.8
3 1 4 173.88 1.98
3 1 4 162.64 3.55
-3 -1 -4 167.86 1.96
-3 -1 -4 170.51 2.96
3 1 5 60.63 0.91
3 1 5 60.71 2.35
-3 -1 -5 59.95 1.01
-3 -1 -5 60.19 2.24
3 1 6 21.33 0.55
3 1 6 22.26 1.96
-3 -1 -6 23.09 0.8
-3 -1 -6 23.67 1.29
3 1 7 61.77 1.05
3 1 7 60.39 2.08
-3 -1 -7 64.33 1.5
-3 -1 -7 65.71 3.04
3 1 8 3.71 0.73
3 1 8 4.18 1.33
-3 -1 -8 5.13 0.92
-3 -1 -8 4.78 2.03
3 1 9 1.79 0.81
3 1 9 3.21 2.2
-3 -1 -9 1.75 1.05
-3 -1 -9 1.2 2.31
3 1 10 11.17 1.74
3 2 -13 6.71 2.97
3 2 -13 7.83 2.27
-3 -2 13 11.41 2.2
-3 -2 13 5.6 1.75
3 2 -12 6.56 1.74
3 2 -12 5.39 1.92
-3 -2 12 7.89 1.97
-3 -2 12 7.46 1.54
3 2 -11 27.11 2.85
3 2 -11 29.22 2.03
-3 -2 11 31.08 1.51
-3 -2 11 24.46 1.66
3 2 -10 21.18 2.4
3 2 -10 19.3 1.57
-3 -2 10 21.67 1.92
-3 -2 10 21.49 1.33
3 2 -9 50.24 1.82
3 2 -9 52.41 1.76
-3 -2 9 48.15 1.58
-3 -2 9 50.01 1.5
3 2 -8 71.16 1.99
3 2 -8 72.72 1.77
-3 -2 8 70.4 2.36
-3 -2 8 73.53 1.58
3 2 -7 116.33 3.2
3 2 -7 118.55 2.11
-3 -2 7 118.28 2.84
-3 -2 7 123.28 1.99
3 2 -6 306.78 5.33
3 2 -6 302.88 4.53
-3 -2 6 298.75 4.93
-3 -2 6 321.73 4.6
3 2 -5 109.45 2.55
3 2 -5 111.85 1.59
-3 -2 5 109.95 2.29
-3 -2 5 109.3 1.54
3 2 -4 461.69 7.65
3 2 -4 466.73 6.7
-3 -2 4 461.07 7.94
-3 -2 4 463.07 6.85
3 2 -3 87.71 1.76
3 2 -3 89.53 1.21
-3 -2 3 88.27 1.35
-3 -2 3 88.61 1.29
3 2 -2 310.42 4.76
3 2 -2 328.91 4.42
-3 -2 2 318.63 4.41
-3 -2 2 318.76 4.25
3 2 -1 265.19 3.67
3 2 -1 264.64 3.7
-3 -2 1 267.9 3.64
-3 -2 1 260.4 3.49
3 2 0 25.53 0.89
-3 -2 0 22.72 0.68
-3 -2 0 22.69 0.66
3 2 1 10.07 0.89
3 2 1 10.55 0.93
-3 -2 -1 11.09 0.39
-3 -2 -1 10.58 0.31
3 2 2 29.09 0.85
3 2 2 28.92 1.35
-3 -2 -2 28.79 0.27
3 2 3 38.46 1.58
3 2 3 38.65 1.6
3 2 4 110.33 2.75
3 2 4 100.75 2.16
3 2 5 40.98 2.04
3 2 5 41.97 2.09
3 2 6 109.43 3.47
3 2 6 106.1 3.51
3 2 7 31.66 2.48
3 2 7 33.98 2.59
3 2 8 18.12 1.65
3 2 8 20.44 2.44
3 2 9 3.99 2.37
3 2 9 1.88 2.42
3 2 10 3.37 1.71
3 2 10 4.42 1.66
3 3 -12 19.46 2.03
3 3 -12 22.32 2.36
-3 -3 12 23.24 2.42
-3 -3 12 18.22 1.85
3 3 -11 46.98 3.48
3 3 -11 50.83 2.49
-3 -3 11 49.89 1.86
-3 -3 11 48.03 2.08
3 3 -10 25.8 2.66
3 3 -10 22.71 1.22
-3 -3 10 27.02 2.07
-3 -3 10 24.04 1.48
3 3 -9 41.16 2.68
3 3 -9 40.74 1.75
-3 -3 9 42.95 2.14
-3 -3 9 40.34 1.53
3 3 -8 6.62 1.84
3 3 -8 8.14 1.08
-3 -3 8 8.57 1.47
-3 -3 8 8.48 0.93
3 3 -7 100.2 2.31
3 3 -7 97.11 1.98
-3 -3 7 100.2 2.63
-3 -3 7 101.61 1.93
3 3 -6 67.25 2.28
3 3 -6 71 1.47
-3 -3 6 67.94 2
-3 -3 6 70.85 1.4
3 3 -5 149.75 3.22
3 3 -5 147.93 2.27
-3 -3 5 151.77 2.9
-3 -3 5 154.13 2.32
3 3 -4 476.63 8.7
3 3 -4 470.77 7.3
-3 -3 4 465.44 7.58
-3 -3 4 463.52 7.43
3 3 -3 346.44 5.38
3 3 -3 359.94 5.27
-3 -3 3 364.28 5.87
-3 -3 3 365.5 5.57
3 3 -2 479.34 7.98
3 3 -2 482.61 7.28
-3 -3 2 491.86 7.92
-3 -3 2 481.02 7.48
3 3 -1 201.8 2.88
3 3 -1 201.7 2.71
-3 -3 1 200.87 2.72
-3 -3 1 196.24 2.78
3 3 0 3.67 0.43
3 3 0 2.29 0.54
-3 -3 0 3.86 0.5
-3 -3 0 4.13 0.89
3 3 1 37.08 1.29
-3 -3 -1 37.85 0.56
3 3 2 362.39 6.54
3 3 2 362.9 6.85
3 3 3 82.93 2.22
3 3 3 77.31 2.38
3 3 4 53.7 2.08
3 3 4 47.09 2.23
3 3 5 18.54 1.81
3 3 5 20.3 1.94
3 3 6 11.85 1.3
3 3 6 11.03 1.27
3 3 7 37.06 1.81
3 3 7 37.86 2.77
3 3 8 0.39 1.32
3 3 8 3.47 2.23
3 3 9 7.42 2.53
3 3 9 8.09 2.62
3 3 10 7.89 2.79
3 3 10 5.99 2.87
3 4 -12 2.2 2.85
3 4 -12 4.05 2.11
-3 -4 12 4.57 1.34
-3 -4 12 1.4 1.63
3 4 -11 12.19 1.87
3 4 -11 14.68 2.08
-3 -4 11 12.26 2.09
-3 -4 11 12.17 1.61
3 4 -10 18.34 1.73
3 4 -10 19.06 1.82
-3 -4 10 16.78 2.07
-3 -4 10 17.1 1.53
3 4 -9 51.04 2.14
3 4 -9 56.39 2.09
-3 -4 9 55.83 2.5
-3 -4 9 56.74 1.92
3 4 -8 87.97 2.42
3 4 -8 87.44 2.31
-3 -4 8 84.84 2.12
-3 -4 8 89.05 2.15
3 4 -7 61.51 1.91
3 4 -7 60.69 1.3
-3 -4 7 62.42 1.58
-3 -4 7 63.92 1.66
3 4 -6 143.18 2.85
3 4 -6 149.14 2.72
-3 -4 6 146.28 3.19
-3 -4 6 151.05 2.69
3 4 -5 50.75 1.92
3 4 -5 49.37 1.27
-3 -4 5 48.9 1.6
-3 -4 5 47.92 1.3
3 4 -4 172.95 2.87
3 4 -4 170.81 2.4
-3 -4 4 172.36 3.1
-3 -4 4 176.39 2.95
3 4 -3 56.43 1.22
3 4 -3 58.29 1.3
-3 -4 3 56.67 1.38
-3 -4 3 55.15 1.42
3 4 -2 156.89 2.66
3 4 -2 152.52 2.49
-3 -4 2 160.4 2.49
-3 -4 2 157.5 2.78
3 4 -1 234.17 3.55
3 4 -1 229.79 3.75
-3 -4 1 237.24 3.32
-3 -4 1 237.52 4.15
3 4 0 87.95 1.52
3 4 0 91.08 1.88
-3 -4 0 87.41 1.2
-3 -4 0 89.72 2.14
3 4 1 311.63 4.13
3 4 1 312.44 5.08
-3 -4 -1 315.24 3.74
-3 -4 -1 329.47 6.19
3 4 2 256.5 4.86
3 4 2 251.65 4.41
3 4 3 171.97 3.77
3 4 3 166.77 3.26
3 4 4 63.17 1.72
3 4 4 65.4 1.89
3 4 5 41.96 1.56
3 4 6 88.97 3.44
3 4 6 82.16 2.58
3 4 7 2.95 1.32
3 4 7 2.22 2.2
3 4 8 17.46 1.69
3 4 8 18.31 2.8
3 4 9 3.99 1.62
3 4 9 2.85 2.76
3 5 -12 19.19 2.4
3 5 -12 20.8 1.89
-3 -5 12 16.71 2.56
-3 -5 12 22.74 2.15
3 5 -11 10.31 3
3 5 -11 9.4 1.4
-3 -5 11 10.65 2.09
-3 -5 11 9.11 1.77
3 5 -10 6.79 2.5
3 5 -10 5.7 1.77
-3 -5 10 5.3 1.9
-3 -5 10 5.21 1.45
3 5 -9 23.01 2.66
3 5 -9 16.46 1.77
-3 -5 9 18.96 1.32
-3 -5 9 19.91 1.54
3 5 -8 2.83 1.94
3 5 -8 1.18 1.24
-3 -5 8 1.43 1.53
-3 -5 8 -0.07 1.16
3 5 -7 169.63 4.75
3 5 -7 172.53 3.62
-3 -5 7 167.45 3.25
-3 -5 7 180.93 3.61
3 5 -6 46.68 2.22
3 5 -6 43.79 1.1
-3 -5 6 46.52 1.85
-3 -5 6 44.71 1.59
3 5 -5 96.46 2.72
3 5 -5 90.41 1.99
-3 -5 5 93.56 2.26
-3 -5 5 94.74 2.15
3 5 -4 122.19 2.84
3 5 -4 120.51 2.3
-3 -5 4 122.04 2.48
-3 -5 4 121.39 2.07
3 5 -3 16.98 0.83
3 5 -3 16.59 1.01
-3 -5 3 15.79 0.68
-3 -5 3 18.12 1.18
3 5 -2 157.55 2.44
3 5 -2 151.57 2.35
-3 -5 2 158.01 2.51
-3 -5 2 154.08 2.6
3 5 -1 22.87 0.95
3 5 -1 21.58 0.81
-3 -5 1 23.55 0.79
-3 -5 1 24.31 1.41
3 5 0 7.8 0.67
3 5 0 8.23 1.09
-3 -5 0 9.08 0.52
-3 -5 0 10.03 1.32
3 5 1 217.34 3.09
3 5 1 218.71 3.67
-3 -5 -1 222.42 2.67
-3 -5 -1 221.96 4.04
3 5 2 149.59 1.44
3 5 2 169.94 3.55
3 5 3 81.85 2.68
3 5 3 87.4 3.01
3 5 4 23.33 1.91
3 5 4 22.14 1.45
3 5 5 47.49 2.66
3 5 5 45.22 2.88
3 5 6 23.86 2.4
3 5 6 24.43 2.67
3 5 7 29.55 1.84
3 5 7 32.3 3.07
3 5 8 2.78 1.56
3 5 8 5.48 1.7
3 5 9 16.46 1.95
3 5 9 13.66 2.12
3 6 -11 23.41 3.38
3 6 -11 16.93 2.47
-3 -6 11 16.91 2.46
-3 -6 11 17.25 2.07
3 6 -10 36.31 3.44
3 6 -10 32.52 2.48
-3 -6 10 33.52 1.76
-3 -6 10 36.12 2.2
3 6 -9 45.45 3.31
3 6 -9 43.15 2.3
-3 -6 9 48.66 2.57
-3 -6 9 42.25 2.2
3 6 -8 45.04 2.13
3 6 -8 47.08 2.16
-3 -6 8 47.54 1.66
-3 -6 8 50.58 1.49
3 6 -7 53.59 2.06
3 6 -7 51.29 2.04
-3 -6 7 57.32 2.22
-3 -6 7 56.43 2.07
3 6 -6 30.92 2.15
3 6 -6 27 1.5
-3 -6 6 25.54 1.65
-3 -6 6 26.78 1.53
3 6 -5 51.64 2.23
3 6 -5 50.9 1.71
-3 -6 5 51.36 1.31
-3 -6 5 56.98 1.93
3 6 -4 43.32 1.37
3 6 -4 44.94 1.57
-3 -6 4 46.92 1.55
-3 -6 4 44.36 1.25
3 6 -3 104.73 2.59
3 6 -3 105.72 2.37
-3 -6 3 104.42 1.75
-3 -6 3 103.73 2.05
3 6 -2 131.29 2.73
3 6 -2 135.34 2.77
-3 -6 2 134 3.15
3 6 -1 24.28 1.13
3 6 -1 23.34 1.38
-3 -6 1 23.72 0.88
-3 -6 1 23.07 1.67
3 6 0 92.19 2.11
3 6 0 95.23 2.4
-3 -6 0 94.23 1.52
-3 -6 0 100.75 2.88
3 6 1 21.68 0.77
3 6 1 23.12 1.03
-3 -6 -1 21.49 0.63
-3 -6 -1 19.82 1.26
3 6 2 59.27 2.25
-3 -6 -2 54.97 1.84
3 6 3 6.11 1.63
3 6 3 6.63 1.27
3 6 4 13.33 1.96
3 6 4 11.98 2.27
3 6 5 70.2 2.24
3 6 5 73.38 3.79
3 6 6 15.34 2.34
3 6 6 15.08 1.88
3 6 7 3.71 1.51
3 6 7 3.23 2.67
3 6 8 5.84 2.63
3 6 8 7.4 2.95
3 7 -11 2.34 3.16
3 7 -11 2.94 1.43
-3 -7 11 4.85 2.25
-3 -7 11 1.64 1.25
3 7 -10 16.94 3.24
3 7 -10 17.68 2.3
-3 -7 10 13.06 1.57
-3 -7 10 15.38 2.08
3 7 -9 13.52 2.86
3 7 -9 10.87 1.9
-3 -7 9 12.31 1.99
-3 -7 9 9.78 1.82
3 7 -8 33.3 2.98
3 7 -8 31.53 2.12
-3 -7 8 30.93 2.18
-3 -7 8 31.49 1.46
3 7 -7 131.81 4.59
3 7 -7 133.55 3.57
-3 -7 7 129.56 3.72
-3 -7 7 131.3 3.7
3 7 -6 73.42 3.11
3 7 -6 69.17 1.75
-3 -7 6 75.96 2.51
-3 -7 6 74.29 2.62
3 7 -5 62.11 2.65
3 7 -5 61.53 2.12
-3 -7 5 60.95 1.57
-3 -7 5 59.58 2.32
3 7 -4 117.85 2.53
3 7 -4 115.74 2.91
-3 -7 4 112.8 2.15
-3 -7 4 119.05 3.28
3 7 -3 64.96 2.24
3 7 -3 65.64 1.59
-3 -7 3 66.1 1.8
-3 -7 3 63.02 1.77
3 7 -2 154.24 3.42
3 7 -2 156.18 3.46
-3 -7 2 154.59 2.87
-3 -7 2 160.57 4.08
3 7 -1 66.71 1.85
3 7 -1 63.75 2.17
-3 -7 1 61.69 1.46
-3 -7 1 64.08 2.64
3 7 0 71.21 1.72
3 7 0 74.49 2.4
-3 -7 0 72.38 1.48
-3 -7 0 79.43 2.96
3 7 1 116.54 2.13
3 7 1 120.05 3.37
-3 -7 -1 117.63 2.15
-3 -7 -1 121.11 3.84
3 7 2 62.03 1.86
-3 -7 -2 64.53 3.19
3 7 3 1.66 1.65
3 7 3 2.01 1.35
3 7 4 20.11 1.48
3 7 4 22.14 2.73
3 7 5 3.08 1.29
3 7 5 4.53 2.49
3 7 6 19.73 1.72
3 7 6 18.27 2.09
3 7 7 1.23 2.32
3 7 7 4.57 2.82
3 8 -10 5.02 2
3 8 -10 7.78 2.25
-3 -8 10 6.29 1.43
-3 -8 10 5.82 2.16
3 8 -9 11.67 3.18
3 8 -9 12.85 2.09
-3 -8 9 11.15 2.23
-3 -8 9 10.17 2.14
3 8 -8 13.69 2.77
3 8 -8 10.29 1.91
-3 -8 8 13.45 1.97
-3 -8 8 11.04 1.34
3 8 -7 30.66 2.9
3 8 -7 31.78 1.43
-3 -8 7 29.59 2.17
-3 -8 7 32.64 2.3
3 8 -6 2.31 1.29
3 8 -6 2.44 1.51
-3 -8 6 2.27 1.49
-3 -8 6 2.32 1.68
3 8 -5 70.44 2.95
3 8 -5 69.19 2.5
-3 -8 5 63.03 1.69
-3 -8 5 66.24 2.77
3 8 -4 27.74 2.07
3 8 -4 22.72 1.21
-3 -8 4 23.48 1.05
-3 -8 4 24.73 2.16
3 8 -3 122.77 3.47
3 8 -3 123.02 2.58
-3 -8 3 123.89 2.83
-3 -8 3 129.32 3.94
3 8 -2 25.76 1.18
3 8 -2 29.78 1.26
-3 -8 2 27.77 0.92
-3 -8 2 29.67 2.25
3 8 -1 25.64 1.55
3 8 -1 25.82 1.28
-3 -8 1 29.63 1.22
-3 -8 1 26.7 1.59
3 8 0 115.52 3.17
3 8 0 108.88 3.34
-3 -8 0 114.48 2.25
-3 -8 0 116.11 4.12
3 8 1 52.16 1.52
3 8 1 59.59 2.52
-3 -8 -1 51.52 1.35
-3 -8 -1 53.95 3.15
3 8 2 80.43 3.2
-3 -8 -2 81.34 2.86
3 8 3 20.43 2.21
3 8 4 25.34 2.57
3 8 4 30.22 3.23
3 8 5 48.24 3.25
3 8 5 45.37 3.99
3 8 6 3.8 2.35
3 8 6 0.88 1.9
3 9 -9 5.1 3.09
3 9 -9 9.54 2.26
-3 -9 9 4.72 2.18
-3 -9 9 9.9 2.31
3 9 -8 25.17 3.25
3 9 -8 18.39 2.36
-3 -9 8 17.97 1.5
-3 -9 8 21 2.51
3 9 -7 26.96 3.14
3 9 -7 31.5 2.35
-3 -9 7 31.37 2.3
-3 -9 7 26.44 1.72
3 9 -6 14.14 2.49
3 9 -6 11.37 1.94
-3 -9 6 15.09 1.79
-3 -9 6 10.96 2.21
3 9 -5 10.97 1.43
3 9 -5 10.12 1.81
-3 -9 5 9.8 1.59
-3 -9 5 7.17 2.15
3 9 -4 27.29 2.32
3 9 -4 29.23 1.99
-3 -9 4 26.97 1.2
-3 -9 4 27.87 2.48
3 9 -3 24.64 2.09
3 9 -3 25.47 1.33
-3 -9 3 25.88 1.56
-3 -9 3 26.11 2.46
3 9 -2 7.91 1.05
3 9 -2 7.29 1.08
-3 -9 2 6.54 0.78
-3 -9 2 9.17 1.42
3 9 -1 45.5 2.08
3 9 -1 42.44 2.35
-3 -9 1 43.53 1.63
-3 -9 1 42.26 3.06
3 9 0 6.73 1.72
3 9 0 4.32 1.79
-3 -9 0 6.84 1.08
-3 -9 0 6.07 1.56
3 9 1 39.25 1.62
3 9 1 39.99 2.53
-3 -9 -1 37.51 1.74
-3 -9 -1 43.62 3.32
3 9 2 4.47 0.85
3 9 2 4.67 1.96
-3 -9 -2 5.34 1.02
-3 -9 -2 4.67 1.73
3 9 3 3.1 1.31
3 9 4 24.66 2.77
3 9 4 25.79 3.65
3 9 5 15.19 2.68
3 9 5 11.44 3.52
3 10 -8 23.41 3.65
3 10 -8 22.79 2.75
-3 -10 8 22.93 1.73
-3 -10 8 25.59 2.97
3 10 -7 6.68 2.9
3 10 -7 6.14 2.21
-3 -10 7 11.5 2.03
-3 -10 7 10.68 2.54
3 10 -6 6.51 2.57
3 10 -6 8.58 2.03
-3 -10 6 7.43 1.85
-3 -10 6 7.66 2.48
3 10 -5 22.43 1.76
3 10 -5 18.21 1.5
-3 -10 5 20.55 1.93
-3 -10 5 15.23 1.77
3 10 -4 27.89 2.61
3 10 -4 27.57 2.31
-3 -10 4 27.17 1.89
-3 -10 4 23.41 2.94
3 10 -3 34.51 2.54
3 10 -3 33.93 1.69
-3 -10 3 34.82 1.93
-3 -10 3 33.19 3.1
3 10 -2 9.45 1.91
3 10 -2 7.47 1.97
-3 -10 2 10.58 1.43
-3 -10 2 10.13 2.57
3 10 -1 22 1.99
3 10 -1 22.12 1.5
-3 -10 1 26.22 1.62
-3 -10 1 19.21 1.96
3 10 0 21.14 1.82
3 10 0 23.96 1.59
-3 -10 0 23.89 2.09
-3 -10 0 23.13 3.24
3 10 1 17.81 2.35
-3 -10 -1 12.13 1.32
-3 -10 -1 15.45 3.11
3 10 2 8.05 2.24
-3 -10 -2 8.52 2.05
3 10 3 3.76 2.33
3 11 -5 15.28 2.85
3 11 -5 15.01 2.44
-3 -11 5 17.14 2.1
-3 -11 5 13.88 2.94
3 11 -4 27.22 1.96
3 11 -4 25.66 2.58
-3 -11 4 25.7 2.12
-3 -11 4 24.89 2.29
3 11 -3 8.47 2.28
3 11 -3 8.92 1.43
-3 -11 3 7.83 1.13
-3 -11 3 12.09 2.88
3 11 -2 10.29 2.23
3 11 -2 14.34 2.32
-3 -11 2 12.55 1.72
-3 -11 2 9.02 3.05
3 11 -1 20.06 2.3
3 11 -1 28.72 2.7
-3 -11 1 22.59 1.88
-3 -11 1 23.28 3.44
3 11 0 7.98 2.45
3 11 0 12.42 2.33
-3 -11 0 10.48 2.14
3 11 1 12.26 1.61
-3 -11 -1 9.28 2.26
4 -12 -2 -1.37 2.52
4 -12 -2 0.44 1.57
-4 12 2 2.45 1.97
-4 12 2 2.77 1.17
4 -12 -1 10.42 2.72
4 -12 -1 12.12 2.58
-4 12 1 10.31 2.23
-4 12 1 7.3 2.09
4 -12 0 11.61 2.66
4 -12 0 9.59 2.6
-4 12 0 10.24 1.5
-4 12 0 8.12 2.11
4 -12 1 2.5 2.56
4 -12 1 4.2 2.38
-4 12 -1 3.42 2.29
-4 12 -1 5.98 2.11
4 -12 2 3.58 2.52
4 -12 2 5.94 1.57
-4 12 -2 5.28 1.62
-4 12 -2 9.41 2.27
4 -11 -5 13.19 2.75
4 -11 -5 10 1.67
-4 11 5 14.32 2.04
-4 11 5 11.51 1.7
4 -11 -4 30.93 2.98
4 -11 -4 27.04 2.77
-4 11 4 24.55 1.58
4 -11 -3 15.2 2.57
4 -11 -3 12.16 2.35
-4 11 3 12.87 2.04
-4 11 3 14.33 1.8
4 -11 -2 20.91 2.74
4 -11 -2 23.12 2.57
-4 11 2 21.4 2.19
-4 11 2 25.99 1.99
4 -11 -1 11.11 2.43
4 -11 -1 8.54 2.24
-4 11 1 10.08 2.02
-4 11 1 8.85 1.75
4 -11 0 28.57 2.74
4 -11 0 22.9 2.53
-4 11 0 27.81 2.38
-4 11 0 22.19 2.12
4 -11 1 5.75 2.22
4 -11 1 3.04 1.98
-4 11 -1 1.8 1.26
-4 11 -1 2.94 1.82
4 -11 2 15.79 1.71
4 -11 2 15.62 1.55
-4 11 -2 17.7 2.46
-4 11 -2 18.12 2.23
4 -11 3 4.9 2.24
4 -11 3 2.36 1.36
-4 11 -3 3.35 2.24
-4 11 -3 2.74 2.13
4 -11 4 18.16 2.68
4 -11 4 17.04 2.59
-4 11 -4 13.87 1.82
-4 11 -4 19.9 2.63
4 -11 5 3.41 2.55
4 -11 5 5.59 1.57
-4 11 -5 3.79 1.75
-4 11 -5 5.46 1.64
-4 10 7 6.92 2.21
-4 10 7 5.67 1.79
-4 10 7 6.84 1.44
-4 10 7 9.28 2.23
4 -10 -6 12.92 2.42
4 -10 -6 14.08 2.26
-4 10 6 9.74 1.86
-4 10 6 10.4 1.58
4 -10 -5 19.1 2.55
4 -10 -5 20.4 2.36
-4 10 5 17.49 1.95
-4 10 5 17.32 1.69
4 -10 -4 7.2 2.2
4 -10 -4 5.81 1.98
-4 10 4 8.57 1.7
-4 10 4 5.34 1.43
4 -10 -3 34.85 2.63
4 -10 -3 33.36 2.46
-4 10 3 31.89 2.15
-4 10 3 32.39 1.89
4 -10 -2 12.62 2.32
4 -10 -2 17.33 2.02
-4 10 2 13.96 1.86
-4 10 2 13.07 1.6
4 -10 -1 70.23 3.23
4 -10 -1 69.9 2.92
-4 10 1 66.52 2.8
-4 10 1 63.52 2.54
4 -10 0 40.16 1.88
4 -10 0 42.24 2.53
-4 10 0 43.7 2.41
-4 10 0 40.16 2.23
4 -10 1 4.28 1.24
4 -10 1 2.17 1.13
-4 10 -1 1.43 1.76
-4 10 -1 2.91 1.61
4 -10 2 36.27 1.86
4 -10 2 40.87 2.51
-4 10 -2 40.02 1.74
-4 10 -2 41.92 2.49
4 -10 3 11.19 2.21
4 -10 3 16.96 2.04
-4 10 -3 10.4 1.49
-4 10 -3 11.65 2.13
4 -10 4 12 2.29
4 -10 4 10.02 2.15
-4 10 -4 8.86 1.49
-4 10 -4 10.52 2.23
4 -10 5 7.49 2.25
4 -10 5 5.73 2.26
-4 10 -5 3.62 1.55
-4 10 -5 8.3 2.41
4 -10 6 3.44 2.29
4 -10 6 7.01 2.36
-4 10 -6 5.67 2.53
-4 10 -6 5.33 2.61
-4 9 8 11.21 1.46
-4 9 8 11.05 1.22
-4 9 8 13.27 1.52
-4 9 8 13.11 2.16
-4 9 7 6.4 2.01
-4 9 7 5.7 1.59
-4 9 7 2.14 1.3
-4 9 7 1.72 1.79
4 -9 -6 20.23 1.65
4 -9 -6 24.77 2.13
-4 9 6 20.07 1.91
-4 9 6 21.15 1.52
4 -9 -5 23 2.41
4 -9 -5 23.86 2.01
-4 9 5 22.25 1.91
-4 9 5 22.62 1.53
4 -9 -4 30 2.48
4 -9 -4 29.74 2.02
-4 9 4 33.99 1.95
-4 9 4 28.71 1.59
4 -9 -3 17.27 2.15
4 -9 -3 17.46 1.81
-4 9 3 16.85 1.73
-4 9 3 18.15 1.38
4 -9 -2 3.82 1.81
4 -9 -2 1.72 1.47
-4 9 2 1.52 0.74
4 -9 -1 35.23 1.61
4 -9 -1 37.48 2.06
-4 9 1 34.1 2.01
-4 9 1 33.3 1.75
4 -9 0 2.21 1.82
4 -9 0 5.26 1.47
-4 9 0 6.45 1.52
-4 9 0 2.53 1.4
4 -9 1 52.66 2.64
4 -9 1 51.22 2.31
-4 9 -1 47.38 2.38
-4 9 -1 48.11 1.53
4 -9 2 47.3 2.55
4 -9 2 45.14 1.58
-4 9 -2 44 2.46
-4 9 -2 46.6 2.38
4 -9 3 34.77 1.68
4 -9 3 33.83 2.26
-4 9 -3 32.56 1.71
-4 9 -3 35.33 2.3
4 -9 4 32.36 2.5
4 -9 4 29.61 1.57
-4 9 -4 32.95 1.71
-4 9 -4 33.41 2.47
4 -9 5 3.14 1.97
4 -9 5 3.84 1.92
-4 9 -5 6.72 2.07
-4 9 -5 6.02 2.21
4 -9 6 10.68 1.44
4 -9 6 14.17 2.32
-4 9 -6 12.49 2.54
-4 9 -6 19.62 2.58
4 -9 7 0.39 1.97
4 -9 7 1.56 2.24
-4 9 -7 2.43 1.47
-4 9 -7 2.7 2.6
-4 8 9 27.26 2.41
-4 8 9 21.01 2.11
-4 8 9 19.8 1.6
-4 8 9 23.9 2.14
-4 8 8 2 1.89
-4 8 8 2.69 1.56
-4 8 8 2.82 1.15
-4 8 8 1.34 1.62
-4 8 7 41 1.8
-4 8 7 40.4 2.21
-4 8 7 41.89 1.64
-4 8 7 41.95 2.14
4 -8 -6 46.25 2.76
4 -8 -6 49.24 2.17
-4 8 6 50.14 2.25
-4 8 6 49.2 1.72
4 -8 -5 42.88 2.51
4 -8 -5 42.03 1.96
-4 8 5 41.8 2.03
-4 8 5 39 1.56
4 -8 -4 14.53 1.9
4 -8 -4 13.06 1.46
-4 8 4 13.47 1
-4 8 4 11.91 1.12
4 -8 -3 17.68 1.81
4 -8 -3 11.73 1.46
-4 8 3 13.71 1.52
-4 8 3 15.84 1.16
4 -8 -2 11.95 1.75
4 -8 -2 10.01 0.9
-4 8 2 11.93 1.47
-4 8 2 11.85 1.13
4 -8 -1 70.66 2.61
4 -8 -1 71.76 2.21
-4 8 1 68.2 2.32
-4 8 1 67.79 1.99
4 -8 0 4.35 1.58
4 -8 0 2.68 0.81
-4 8 0 3.79 1.39
-4 8 0 3.25 1.2
4 -8 1 1.81 0.99
4 -8 1 1.08 1.26
-4 8 -1 -0.05 0.87
-4 8 -1 2.6 1.23
4 -8 2 25.56 1.36
4 -8 2 26.17 1.17
-4 8 -2 27.02 1.87
-4 8 -2 27.06 1.8
4 -8 3 14.99 1.86
4 -8 3 14.3 1.12
-4 8 -3 15.01 1.8
-4 8 -3 15.51 1.82
4 -8 4 11.86 1.19
4 -8 4 13.86 1.86
-4 8 -4 12.97 1.91
-4 8 -4 16.47 1.99
4 -8 5 7.37 1.13
4 -8 5 9.18 1.89
-4 8 -5 6.3 1.97
-4 8 -5 8.88 1.35
4 -8 6 10.64 1.9
4 -8 6 11.47 2.05
-4 8 -6 6.96 2.13
-4 8 -6 12.05 1.53
4 -8 7 15.53 2.07
4 -8 7 12.12 1.53
-4 8 -7 8.98 2.42
-4 8 -7 11.15 1.78
4 -8 8 10.81 2.15
4 -8 8 11.2 2.43
-4 8 -8 5.85 1.65
-4 8 -8 6.13 1.84
-4 7 10 16.72 2.19
-4 7 10 14.88 2
-4 7 10 10.11 1.39
-4 7 10 11.98 1.79
-4 7 9 10.51 2.04
-4 7 9 9.43 1.79
-4 7 9 7.68 1.21
-4 7 9 9.58 1.59
-4 7 8 25.98 2.22
-4 7 8 22.63 1.29
-4 7 8 23.76 1.28
-4 7 8 23.79 1.71
-4 7 7 29.39 1.47
-4 7 7 31.67 1.98
-4 7 7 28.36 1.27
-4 7 7 28.8 1.66
-4 7 6 42.33 1.44
-4 7 6 42.58 1.38
4 -7 -5 46.9 1.66
4 -7 -5 44.68 1.68
-4 7 5 50.55 2.05
-4 7 5 43.99 1.33
4 -7 -4 19.9 1.88
4 -7 -4 20.58 1.27
-4 7 4 20.29 1.53
-4 7 4 19.8 1.01
4 -7 -3 75.72 2.58
4 -7 -3 75.9 1.95
-4 7 3 76.35 2.31
-4 7 3 77.51 1.7
4 -7 -2 38.92 1.38
4 -7 -2 35.77 1.46
-4 7 2 35.9 1.19
-4 7 2 34.61 1.3
4 -7 -1 192.41 3.66
4 -7 -1 203.88 3.87
-4 7 1 199.62 4.2
-4 7 1 199.67 3.66
4 -7 0 18.75 1.65
4 -7 0 15.28 1.24
-4 7 0 15.01 1.44
-4 7 0 15.25 1.2
4 -7 1 161.9 3.09
4 -7 1 166.78 3.43
-4 7 -1 159.56 3.63
-4 7 -1 165.15 3.5
4 -7 2 21.16 1.66
4 -7 2 19.03 0.95
-4 7 -2 18.49 1.07
-4 7 -2 21.06 1.5
4 -7 3 24.95 1.21
4 -7 3 24.05 1.66
-4 7 -3 25.62 1.72
-4 7 -3 22.95 1.18
4 -7 4 1.59 1.37
4 -7 4 1.11 0.9
-4 7 -4 1.66 1.46
-4 7 -4 -0.69 1.54
4 -7 5 8.74 1.55
4 -7 5 9.04 1.71
-4 7 -5 7.14 1.71
-4 7 -5 9.86 1.89
4 -7 6 2.65 1.6
4 -7 6 3.76 1.16
-4 7 -6 3.61 1.18
-4 7 -6 5.33 2.1
4 -7 7 4.46 1.12
4 -7 7 1.51 2.13
-4 7 -7 6.46 2
-4 7 -7 7.23 2.3
4 -7 8 5.29 1.84
4 -7 8 5.6 1.46
-4 7 -8 8.62 2.23
-4 7 -8 5.29 2.65
4 -7 9 2.59 1.99
4 -7 9 4.82 1.6
-4 7 -9 4.66 2.47
-4 7 -9 3.77 2.95
-4 6 11 1.18 2.04
-4 6 11 4.72 1.9
-4 6 10 24.58 2.33
-4 6 10 24.4 2.2
-4 6 10 21.61 1.39
-4 6 10 20.49 2.17
-4 6 9 27.71 1.59
-4 6 9 29.2 2.14
-4 6 9 26.48 1.28
-4 6 9 27.22 1.66
-4 6 8 12.01 1.83
-4 6 8 12.64 1.69
-4 6 8 9.26 0.93
-4 6 8 10.92 1.61
-4 6 7 18.51 1.87
-4 6 7 18.35 1.78
-4 6 7 18.18 0.95
-4 6 7 19.67 1.28
-4 6 6 90.51 2.87
-4 6 6 82.98 2.54
-4 6 6 80.57 1.61
-4 6 6 82.89 1.98
4 -6 -5 4.22 0.89
-4 6 5 6.29 1.23
-4 6 5 3.84 0.67
4 -6 -4 68.48 2.36
4 -6 -4 64.63 1.54
-4 6 4 67.85 2.05
-4 6 4 64.36 1.33
4 -6 -3 8.32 0.96
-4 6 3 7.94 1.22
-4 6 3 8.76 0.74
4 -6 -2 231.27 4.77
4 -6 -2 225.86 3.78
-4 6 2 222.05 3.67
-4 6 2 217.5 3.08
4 -6 -1 189.2 3.99
4 -6 -1 183.08 3.15
-4 6 1 182.89 3.65
-4 6 1 178.26 3.08
4 -6 0 61.26 2.07
4 -6 0 60.6 1.59
-4 6 0 62.47 1.9
-4 6 0 61.17 1.59
4 -6 1 78.93 1.7
4 -6 1 80.25 1.93
-4 6 -1 81.62 2.17
-4 6 -1 82.01 1.99
4 -6 2 61.13 2.04
4 -6 2 56.59 1.77
-4 6 -2 59.34 1.98
-4 6 -2 58.58 1.89
4 -6 3 94.61 1.98
4 -6 3 92.7 1.91
-4 6 -3 100.98 2.61
-4 6 -3 93.35 2.08
4 -6 4 43.6 1.84
4 -6 4 42.51 1.96
-4 6 -4 38.88 1.93
-4 6 -4 43.01 2.07
4 -6 5 49.26 1.48
4 -6 5 48.52 2.28
-4 6 -5 47.86 1.53
-4 6 -5 52.75 2.56
4 -6 6 45.56 2.09
4 -6 6 48.65 2.49
-4 6 -6 45.91 2.69
4 -6 7 5.25 1.55
4 -6 7 4.34 2.01
-4 6 -7 4.32 1.8
-4 6 -7 6.84 2.17
4 -6 8 19.75 1.92
4 -6 8 19.53 2.55
-4 6 -8 19.05 2.4
-4 6 -8 18.81 1.98
4 -6 9 -1.66 1.64
4 -6 9 1.49 2.24
-4 6 -9 0.31 2.14
-4 6 -9 0.81 1.68
-4 5 11 2.34 1.94
-4 5 11 4.15 1.29
-4 5 10 25.38 2.29
-4 5 10 21.67 1.49
-4 5 10 19.43 1.25
-4 5 10 19.25 1.47
-4 5 9 4.87 1.73
-4 5 9 3.96 1.67
-4 5 9 3.28 0.88
-4 5 9 6.14 1.35
-4 5 8 7.55 1.08
-4 5 8 7.41 1.59
-4 5 8 6.09 0.78
-4 5 8 6.29 1.27
-4 5 7 72.56 2.57
-4 5 7 67.63 2.42
-4 5 7 67.38 1.32
-4 5 7 68.48 1.9
-4 5 6 13.03 1.51
-4 5 6 10.09 1.46
-4 5 6 11.58 0.65
-4 5 6 11.09 0.83
4 -5 -5 40.39 1.9
4 -5 -5 39.5 1.03
-4 5 5 35.63 1.72
-4 5 5 37.77 0.82
4 -5 -4 52.82 1.43
4 -5 -4 51.89 1.12
-4 5 4 49.72 1.29
-4 5 4 52.99 0.96
4 -5 -3 66.04 2.09
4 -5 -3 67.09 1.26
-4 5 3 66.18 1.89
-4 5 3 64.97 1.13
4 -5 -2 118.58 2.15
4 -5 -2 120.29 1.9
-4 5 2 115.6 2.03
-4 5 2 119.83 1.83
4 -5 -1 2.51 1.13
4 -5 -1 2.85 0.66
-4 5 1 2.77 0.63
-4 5 1 1.44 0.42
4 -5 0 64.74 1.93
4 -5 0 71.27 1.47
-4 5 0 70.93 1.77
-4 5 0 66.92 1.49
4 -5 1 57.54 1.78
4 -5 1 57.06 1.09
-4 5 -1 57.76 1.63
-4 5 -1 58.42 1.15
4 -5 2 164.14 2.77
4 -5 2 168.59 3.16
-4 5 -2 166.41 3.27
-4 5 -2 161.99 3.27
4 -5 3 19.67 0.88
4 -5 3 19.37 1.31
-4 5 -3 22.63 1.47
4 -5 4 24.96 1.42
4 -5 4 23.49 1.07
-4 5 -4 24.79 1.45
-4 5 -4 24.88 1.21
4 -5 5 60.69 1.52
4 -5 5 62.43 1.74
-4 5 -5 68.35 2.23
-4 5 -5 68.43 2.67
4 -5 6 26.81 1.15
4 -5 6 27.17 2.13
-4 5 -6 28.27 1.31
-4 5 -6 29.65 2.44
4 -5 7 39.22 1.94
4 -5 7 38.18 2.67
-4 5 -7 41.65 2.25
-4 5 -7 39.83 2.96
4 -5 8 6.35 1.54
4 -5 8 7.68 2.28
-4 5 -8 8.11 1.94
-4 5 -8 8.74 1.64
4 -5 9 5.54 1.62
4 -5 9 6.36 2.37
-4 5 -9 7.01 2.17
-4 5 -9 4.9 2.73
4 -5 10 7.76 1.78
4 -5 10 5.69 1.72
-4 5 -10 6.32 2.54
-4 5 -10 10.49 3.15
-4 4 12 8.43 2.14
-4 4 12 7.62 1.53
-4 4 11 30.19 2.42
-4 4 11 28.42 2.48
-4 4 11 22.97 1.9
-4 4 10 54.11 2.77
-4 4 10 49.61 2.74
-4 4 9 15.52 1.87
-4 4 9 16.11 1.85
-4 4 9 11.68 1.14
-4 4 9 12.23 1.01
-4 4 8 10.99 1.66
-4 4 8 8.88 1.06
-4 4 8 7.81 0.68
-4 4 8 7.45 1.01
-4 4 7 24.33 1.74
-4 4 7 21.85 1.79
-4 4 7 20.56 0.86
-4 4 7 22.27 1.04
-4 4 6 77.3 1.81
-4 4 6 77.24 2.37
-4 4 6 75.09 1.22
-4 4 6 75.87 1.44
-4 4 5 38.62 1.72
-4 4 5 38.72 1.67
-4 4 5 36.23 0.73
-4 4 5 36.92 0.89
4 -4 -4 114.43 2.16
4 -4 -4 120.41 1.73
-4 4 4 118.18 2.62
-4 4 4 120.65 1.57
4 -4 -3 254.66 4.75
4 -4 -3 260.24 3.58
-4 4 3 253.84 4.07
-4 4 3 262.56 3.46
4 -4 -2 62.59 1.8
4 -4 -2 63.88 1.02
-4 4 2 59.16 1.23
-4 4 2 62.3 1.03
4 -4 -1 84.79 1.58
4 -4 -1 89.42 1.35
-4 4 1 88.36 1.9
-4 4 1 83.88 1.37
4 -4 0 4.94 0.96
4 -4 0 3.52 0.62
-4 4 0 3.62 0.72
4 -4 1 104.18 2.14
4 -4 1 103.16 1.55
-4 4 -1 100.35 1.64
-4 4 -1 105.79 2.01
4 -4 2 40.89 1.39
4 -4 2 38.28 1.36
-4 4 -2 40.12 0.94
-4 4 -2 37.81 1.01
4 -4 3 239.24 4.21
4 -4 3 222.2 3.67
-4 4 -3 219.06 3.43
-4 4 -3 224.15 3.77
4 -4 4 25.94 1.28
4 -4 4 26.64 1.05
-4 4 -4 25.37 0.88
-4 4 -4 25.64 1.65
4 -4 5 97.17 2.32
4 -4 5 97.46 2.88
-4 4 -5 93.58 1.9
-4 4 -5 109.44 3.26
4 -4 6 14.27 1.28
4 -4 6 13.37 1.8
-4 4 -6 15.83 1.48
-4 4 -6 13.05 1.33
4 -4 7 5.83 1.29
4 -4 7 3.77 1.96
-4 4 -7 7.85 1.58
-4 4 -7 6.08 2.17
4 -4 8 17.48 1.59
4 -4 8 19.85 2.45
-4 4 -8 22.1 2.02
-4 4 -8 19.15 2.73
4 -4 9 0.53 1.37
4 -4 9 1.5 1.36
-4 4 -9 0.44 1.88
-4 4 -9 0.54 1.62
4 -4 10 5.08 1.57
4 -4 10 5.87 2.59
-4 4 -10 4.63 1.52
-4 4 -10 6.77 3.07
-4 3 12 10.76 2.19
-4 3 12 9.83 2.48
-4 3 11 8.38 1.3
-4 3 11 8.21 2.13
-4 3 11 6.06 1.1
-4 3 11 5.58 1.13
-4 3 10 34.64 2.35
-4 3 10 31.23 1.66
-4 3 10 28.15 1.21
-4 3 10 30.89 1.52
-4 3 9 6.48 1.69
-4 3 9 5.77 1.16
-4 3 9 4.79 0.75
-4 3 9 5.42 0.95
-4 3 8 65.36 2.47
-4 3 8 60.71 2.57
-4 3 8 59.63 1.32
-4 3 8 64.68 1.43
-4 3 7 216.4 4.79
-4 3 7 204.01 3.95
-4 3 7 204.8 2.78
-4 3 7 217.72 3.02
-4 3 6 51.13 2
-4 3 6 50.71 1.43
-4 3 6 48.88 0.73
-4 3 6 52.94 0.82
-4 3 5 32.06 1.06
-4 3 5 31.82 1.56
-4 3 5 30.72 0.41
-4 3 4 145.22 2.96
-4 3 4 149.56 1.49
-4 3 4 155.37 1.62
4 -3 -3 203.35 3.22
4 -3 -3 204.87 2.32
-4 3 3 193.46 3.1
-4 3 3 209.97 2.35
4 -3 -2 312.72 4.88
4 -3 -2 320.08 4.14
-4 3 2 312.21 4.81
-4 3 2 317.23 4.05
4 -3 -1 135.09 2.47
4 -3 -1 133.61 1.74
-4 3 1 130.24 1.99
-4 3 1 136.43 1.87
4 -3 0 289.61 4.83
4 -3 0 297.03 4.28
-4 3 0 285.8 4.62
-4 3 0 292.21 4.39
4 -3 1 183.47 3.08
4 -3 1 175.41 2.46
-4 3 -1 181.44 2.57
-4 3 -1 190.78 3.1
4 -3 2 242.31 3.63
4 -3 2 245.07 4.25
-4 3 -2 246.75 3.99
-4 3 -2 251.35 4.43
4 -3 3 10.39 0.92
4 -3 3 9.43 1.14
-4 3 -3 11.09 0.87
-4 3 -3 10.41 1.25
4 -3 4 17.54 1.03
4 -3 4 18.55 1.41
-4 3 -4 18.57 1.04
-4 3 -4 18.48 1.52
4 -3 5 47.48 1.48
4 -3 5 47.35 2.06
-4 3 -5 44.12 1.58
-4 3 -5 48.35 2.23
4 -3 6 19.68 1.21
4 -3 6 19.15 1.27
-4 3 -6 20.08 1.41
-4 3 -6 22.01 1.38
4 -3 7 71.68 2.1
4 -3 7 74.52 3.19
-4 3 -7 66.92 2.39
-4 3 -7 76.22 3.53
4 -3 8 6.1 1.26
4 -3 8 9.35 2.14
-4 3 -8 6.35 1.61
-4 3 -8 7.9 2.39
4 -3 9 9.34 1.47
4 -3 9 10.13 2.52
-4 3 -9 10.02 1.91
-4 3 -9 9.19 1.81
4 -3 10 6.25 1.53
4 -3 10 7.96 2.7
-4 3 -10 6.23 2.2
-4 3 -10 3.81 3.01
-4 2 12 6.21 1.32
-4 2 12 4.78 2.46
-4 2 11 28.22 2.33
-4 2 11 26.35 1.79
-4 2 11 21.32 1.32
-4 2 11 21.93 1.29
-4 2 10 13.84 1.95
-4 2 10 12.31 2.18
-4 2 10 10.46 1.24
-4 2 10 11.39 0.93
-4 2 9 2.69 1.54
-4 2 9 -0.46 1.73
-4 2 9 1.72 0.65
-4 2 9 1.57 0.81
-4 2 8 42.39 1.47
-4 2 8 45.75 2.29
-4 2 8 42.23 0.89
-4 2 8 45.37 0.88
-4 2 7 62.87 2.21
-4 2 7 57.96 1.68
-4 2 7 58.88 0.8
-4 2 7 62.88 0.93
-4 2 6 122.57 2.88
-4 2 6 123.05 2.39
-4 2 6 120.91 1.18
-4 2 6 119.17 1.11
-4 2 5 92.79 1.78
-4 2 5 94.13 2.38
-4 2 4 72.88 1.82
-4 2 4 68.83 1.9
-4 2 3 317.04 5.49
4 -2 -2 63.63 1.62
4 -2 -2 59.88 0.69
-4 2 2 58.81 1.16
-4 2 2 59.39 0.84
4 -2 -1 317.98 5.22
4 -2 -1 312.24 4.1
-4 2 1 301.16 4.85
-4 2 1 312.13 4.22
4 -2 0 383.07 6.21
4 -2 0 378.73 5.61
-4 2 0 377.02 5.94
-4 2 0 372.8 5.36
4 -2 1 149.54 2.49
4 -2 1 146.21 2.42
-4 2 -1 143.35 2.23
-4 2 -1 154.36 2.54
4 -2 2 488.38 8.23
4 -2 2 467.01 8.47
-4 2 -2 465.13 7.63
-4 2 -2 460.08 8.53
4 -2 3 214.14 3.41
4 -2 3 206.36 4.03
-4 2 -3 209.45 3.22
-4 2 -3 209.45 3.49
4 -2 4 67.19 1.15
4 -2 4 67.05 2.17
-4 2 -4 67.8 1.49
-4 2 -4 63.02 1.64
4 -2 5 83.71 1.77
4 -2 5 81.29 1.98
-4 2 -5 82.47 1.86
-4 2 -5 87.9 2.09
4 -2 6 1.92 0.85
4 -2 6 1.45 1.64
-4 2 -6 2.33 0.99
-4 2 -6 2.35 1.07
4 -2 7 19.8 1.19
4 -2 7 19.26 1.49
-4 2 -7 20.01 1.46
-4 2 -7 22.73 2.45
4 -2 8 0.75 1.01
4 -2 8 0.2 1.31
-4 2 -8 2.52 1.32
-4 2 -8 3.23 2.12
4 -2 9 7.31 1.29
4 -2 9 10.69 1.6
-4 2 -9 12.13 1.73
-4 2 -9 10.59 2.77
4 -2 10 5.11 1.35
4 -2 10 4.73 2.65
-4 2 -10 5.62 1.9
-4 2 -10 9.32 2.99
-4 1 12 12.48 2.21
-4 1 12 14.46 2.69
-4 1 12 11.58 1.43
-4 1 12 9.55 1.27
-4 1 11 20.85 2.11
-4 1 11 15.09 1.68
-4 1 11 17.72 1.32
-4 1 11 15.38 1.15
-4 1 10 14.58 1.31
-4 1 10 14.49 2.27
-4 1 10 15.2 1.08
-4 1 10 14.97 0.96
-4 1 9 12.72 1.76
-4 1 9 12.34 2
-4 1 9 11.78 0.83
-4 1 9 12.21 0.7
-4 1 8 77.99 2.65
-4 1 8 81.4 2.88
-4 1 8 78.35 1.5
-4 1 8 81.14 1.36
-4 1 7 90.36 1.9
-4 1 7 87.7 2.79
-4 1 7 87.27 1.1
-4 1 7 89.29 1.11
-4 1 6 89.67 2.34
-4 1 6 88.92 1.92
-4 1 6 89.35 0.79
-4 1 5 1.88 1.08
-4 1 5 0.98 1.13
-4 1 4 735.42 14.55
-4 1 4 704.07 13.33
-4 1 3 162.8 2.92
-4 1 3 166.76 2.98
4 -1 -2 484.8 6.52
-4 1 2 455.55 7.78
4 -1 -1 330.05 4.88
4 -1 -1 326.02 4.4
-4 1 1 330.44 5.17
-4 1 1 338.87 4.59
4 -1 0 5.46 0.49
4 -1 0 5.47 0.63
-4 1 0 6.24 0.67
-4 1 0 5.9 0.67
4 -1 1 271.96 3.76
4 -1 1 278.35 4.39
-4 1 -1 274.15 3.92
-4 1 -1 284 4.57
4 -1 2 107.53 1.8
4 -1 2 104.86 1.78
-4 1 -2 107.27 1.65
-4 1 -2 109.72 2.3
4 -1 3 70.36 1.34
4 -1 3 66.7 1.94
-4 1 -3 66.72 1.19
-4 1 -3 67.63 2.04
4 -1 4 187.27 2.87
4 -1 4 181.64 4.07
-4 1 -4 180.39 2.73
-4 1 -4 183.48 3.39
4 -1 5 57.32 1.3
4 -1 5 57.26 1.68
-4 1 -5 55.01 1.3
-4 1 -5 58.44 2.46
4 -1 6 114.36 2.1
4 -1 6 109.61 2.71
-4 1 -6 106.06 2.19
-4 1 -6 116.03 3.75
4 -1 7 29.6 1.17
4 -1 7 31.38 1.69
-4 1 -7 31.7 1.4
-4 1 -7 36.6 2.69
4 -1 8 0.84 0.89
4 -1 8 0.82 2.1
-4 1 -8 2.55 1.17
-4 1 -8 4.76 1.39
4 -1 9 1.83 1.03
4 -1 9 3.05 2.34
-4 1 -9 3.41 1.38
-4 1 -9 4.55 1.59
4 -1 10 3.41 2.57
-4 1 -10 3.15 2.8
4 0 -12 10.42 1.77
4 0 -12 8.31 1.53
-4 0 12 10.35 1.41
-4 0 12 8.97 1.27
4 0 -11 38.05 2.93
4 0 -11 34.95 1.65
-4 0 11 36.8 1.71
-4 0 11 33.81 1.4
4 0 -10 9.78 2.25
4 0 -10 11.44 1.1
-4 0 10 12.38 1.21
-4 0 10 11.61 0.92
4 0 -9 31.84 2.39
4 0 -9 34.3 1.16
-4 0 9 32.44 1.45
-4 0 9 33.82 0.96
4 0 -8 62.66 1.88
4 0 -8 66.98 1.51
-4 0 8 62.9 1.73
-4 0 8 65.45 1.07
4 0 -7 51.22 2.23
4 0 -7 50.16 1.05
-4 0 7 48.06 1.42
-4 0 7 50.54 0.75
4 0 -6 118.14 3
4 0 -6 119.88 1.44
-4 0 6 119.85 2.82
-4 0 6 119.84 1.34
4 0 -5 177.07 3.63
-4 0 5 174.18 3.44
-4 0 5 177.96 1.73
4 0 -4 316.31 3.38
-4 0 4 324.01 5.67
4 0 -3 139.46 1.42
4 0 -3 139.51 1.52
-4 0 3 137.19 2.11
-4 0 3 135.82 2.14
4 0 -2 192.53 2.39
4 0 -2 187.55 2.43
-4 0 2 183.04 2.64
-4 0 2 179.37 2.61
4 0 -1 103.21 1.52
4 0 -1 101.71 1.52
-4 0 1 104.66 1.8
-4 0 1 97.86 1.72
4 0 0 945.98 18.94
-4 0 0 947.39 18.42
-4 0 0 957.91 19.17
4 0 1 64.73 1.2
4 0 1 62.42 1.16
-4 0 -1 64.79 1.09
-4 0 -1 64.43 1.17
4 0 2 873.62 16.24
4 0 2 835.35 18.16
-4 0 -2 862.9 15.54
-4 0 -2 863.58 18.44
4 0 3 28.36 0.75
4 0 3 28.05 1.07
-4 0 -3 27.53 0.65
-4 0 -3 29.02 1.51
4 0 4 81.68 1.32
4 0 4 81.35 2.48
-4 0 -4 79.54 1.44
-4 0 -4 75.72 1.85
4 0 5 26.69 0.79
4 0 5 27.72 1.92
-4 0 -5 26.86 0.82
-4 0 -5 30.13 1.95
4 0 6 23.72 0.86
4 0 6 23.66 1.51
-4 0 -6 25.09 0.91
-4 0 -6 23.97 2.27
4 0 7 28.24 0.98
4 0 7 26.86 2.59
-4 0 -7 30.97 1.41
-4 0 -7 30.22 2.6
4 0 8 22.75 1.03
4 0 8 25.77 2.71
-4 0 -8 22.58 1.19
-4 0 -8 22.09 1.84
4 0 9 14.77 1.82
-4 0 -9 19.73 1.95
4 0 10 9.58 2.94
-4 0 -10 11.56 3.16
4 1 -12 9.8 2.72
4 1 -12 8.88 1.66
-4 -1 12 12.63 2.15
-4 -1 12 9.07 1.31
4 1 -11 18.48 1.73
4 1 -11 15.43 1.5
-4 -1 11 16.58 1.38
-4 -1 11 15.13 1.24
4 1 -10 8.68 2.25
4 1 -10 9.36 1.18
-4 -1 10 13.17 1.92
-4 -1 10 11.07 0.97
4 1 -9 108.28 3.89
4 1 -9 114.2 2.26
-4 -1 9 112.97 3.49
-4 -1 9 112.27 2.01
4 1 -8 59.43 2.7
4 1 -8 62.42 1.64
-4 -1 8 62.2 2.47
-4 -1 8 62.8 1.41
4 1 -7 259.94 5
4 1 -7 270.95 4.11
-4 -1 7 269.28 4.79
-4 -1 7 278.3 3.74
4 1 -6 57.37 2.13
-4 -1 6 54.76 1.43
4 1 -5 77.49 1.65
4 1 -5 83.19 1.16
-4 -1 5 79.03 1.63
-4 -1 5 84.47 1.2
4 1 -4 431.57 7.41
4 1 -4 439.12 5.78
-4 -1 4 443.82 8.04
-4 -1 4 456.28 6.51
4 1 -3 31.44 0.88
4 1 -3 32.73 0.58
-4 -1 3 33.21 1.2
-4 -1 3 34.27 0.67
4 1 -2 144.11 1.89
4 1 -2 143.08 2
-4 -1 2 142.87 2.05
-4 -1 2 143.51 2.42
4 1 -1 172.52 2.48
4 1 -1 166.44 2.51
-4 -1 1 166.01 2.53
-4 -1 1 165.4 2.55
4 1 0 9.18 0.8
4 1 0 8.6 0.57
-4 -1 0 8.9 0.61
-4 -1 0 8.91 0.57
4 1 1 832.41 16.93
4 1 1 806.25 16.52
-4 -1 -1 794.57 14.54
-4 -1 -1 792.77 14.24
4 1 2 102.19 1.91
-4 -1 -2 103 1.23
4 1 3 156.77 2.05
4 1 3 153.37 2.8
-4 -1 -3 156.56 1.87
-4 -1 -3 155.84 3.46
4 1 4 59.52 0.94
4 1 4 61.69 2.3
-4 -1 -4 59.85 0.9
-4 -1 -4 61.41 2.28
4 1 5 30.23 2.11
-4 -1 -5 25.61 1.39
4 1 6 59.03 1.03
4 1 6 61.27 2.06
-4 -1 -6 60.59 1.08
-4 -1 -6 65.23 2.15
4 1 7 11.66 2.27
-4 -1 -7 11.75 2.28
4 1 8 5.06 2.35
-4 -1 -8 4.75 1.55
4 1 9 8.13 2.72
4 1 10 7.06 3.12
4 1 10 5.21 2.88
4 2 -12 8.44 2.77
4 2 -12 8.78 1.71
-4 -2 12 6.32 2.14
-4 -2 12 6.52 1.4
4 2 -11 8.62 2.58
4 2 -11 8.2 1.49
-4 -2 11 7.15 1.99
-4 -2 11 10.17 1.22
4 2 -10 7.57 1.56
4 2 -10 9.31 1.25
-4 -2 10 7.97 1.88
-4 -2 10 10.48 1.08
4 2 -9 53.43 2.96
4 2 -9 55.5 1.7
-4 -2 9 56.57 1.82
-4 -2 9 57 1.82
4 2 -8 93.16 3.32
4 2 -8 97.73 1.95
-4 -2 8 95.32 2.96
-4 -2 8 94.15 1.74
4 2 -7 131.17 3.63
4 2 -7 140.33 2.53
-4 -2 7 129.79 2.64
-4 -2 7 133.07 2.05
4 2 -6 139.73 3.5
4 2 -6 149.94 2.15
-4 -2 6 143.49 3.27
-4 -2 6 148.53 2.14
4 2 -5 291.09 5.72
4 2 -5 300.92 4.11
-4 -2 5 296.68 5.54
-4 -2 5 301.21 4.53
4 2 -4 238.91 4.43
4 2 -4 237.53 3.12
-4 -2 4 220.29 3.52
-4 -2 4 234.48 3.31
4 2 -3 248.82 3.84
4 2 -3 252.46 3.41
-4 -2 3 259.08 4.33
-4 -2 3 243.57 3.54
4 2 -2 249.57 4.07
4 2 -2 255.65 3.65
-4 -2 2 265.93 4.16
-4 -2 2 250.18 3.81
4 2 -1 292.76 4.6
-4 -2 1 300.32 4.48
4 2 0 343.48 5.72
4 2 0 336.49 5.76
-4 -2 0 337.84 4.84
-4 -2 0 333.01 4.78
4 2 1 172.16 3.18
4 2 1 170.97 3.43
-4 -2 -1 173.93 2.18
-4 -2 -1 178.78 2.18
4 2 2 66.68 1.98
4 2 2 65.56 1.54
-4 -2 -2 64.58 0.88
-4 -2 -2 67.26 0.78
4 2 3 5.68 0.87
4 2 3 6.8 1.37
4 2 4 1.24 0.94
4 2 4 -0.05 1.46
4 2 5 53.13 2.55
4 2 5 44.21 2.5
4 2 6 20.75 2.32
4 2 6 20.96 2.35
4 2 7 13.62 2.32
4 2 7 11.94 2.51
4 2 8 11.83 2.64
4 2 8 12.59 1.69
4 2 9 3.93 2.73
4 2 9 5.77 2.78
4 3 -12 18.73 3.33
4 3 -12 21.28 2.18
-4 -3 12 23.1 1.79
-4 -3 12 21.05 1.81
4 3 -11 12.64 2.88
4 3 -11 12.01 1.67
-4 -3 11 12.06 2.18
-4 -3 11 10.16 1.41
4 3 -10 38.18 2.09
4 3 -10 39.46 1.86
-4 -3 10 38.09 2.5
-4 -3 10 40.22 1.61
4 3 -9 66.74 2.32
4 3 -9 65.87 2
-4 -3 9 68.87 2.84
-4 -3 9 68.84 1.79
4 3 -8 21.02 2.14
4 3 -8 20.96 1.16
-4 -3 8 18.57 1.22
-4 -3 8 17.78 1.03
4 3 -7 157.13 3.38
4 3 -7 160.78 2.79
-4 -3 7 166.93 3.14
-4 -3 7 165.47 2.82
4 3 -6 4.22 0.94
4 3 -6 5.01 0.72
-4 -3 6 3.68 0.83
-4 -3 6 4.06 0.92
4 3 -5 92.76 1.95
4 3 -5 94.48 1.59
-4 -3 5 93.86 1.8
-4 -3 5 94 1.7
4 3 -4 308.77 5.75
4 3 -4 299.7 4.49
-4 -3 4 301.36 5.39
-4 -3 4 293.47 4.7
4 3 -3 177.17 3.27
4 3 -3 179.2 2.7
-4 -3 3 176.84 2.65
-4 -3 3 177.17 2.92
4 3 -2 831.81 17.03
4 3 -2 852.57 16.11
-4 -3 2 839.46 16.74
-4 -3 2 851.36 17.37
4 3 -1 158.83 2.48
4 3 -1 151.07 2.64
-4 -3 1 154.09 2.3
-4 -3 1 159.69 2.98
4 3 0 288.36 5.09
4 3 0 287.72 4.73
-4 -3 0 302.38 4.17
-4 -3 0 286.35 4.12
4 3 1 203.38 3.93
4 3 1 199.97 3.44
-4 -3 -1 207.96 2.62
-4 -3 -1 199.08 2.59
4 3 2 166.21 3.53
4 3 2 156.66 2.97
4 3 3 16.92 1.66
4 3 3 19.57 1.74
4 3 4 57.29 2.37
4 3 4 51.23 1.82
4 3 5 45.68 1.87
4 3 5 49.59 1.92
4 3 6 26.67 2.55
4 3 6 27.08 2.64
4 3 7 11.84 2.41
4 3 7 12.71 2.56
4 3 8 5.36 2.46
4 3 8 4.19 1.71
4 3 9 2.19 1.8
4 3 9 3.9 1.82
4 4 -12 6.92 2.9
4 4 -12 2.14 1.97
-4 -4 12 3.1 1.4
-4 -4 12 -0.87 1.57
4 4 -11 7.05 2.81
4 4 -11 7.36 1.8
-4 -4 11 8.24 2.16
-4 -4 11 8.33 1.47
4 4 -10 29.36 3.11
4 4 -10 31.58 1.95
-4 -4 10 29.55 2.41
-4 -4 10 29.56 1.66
4 4 -9 31.12 2.87
4 4 -9 29.66 1.69
-4 -4 9 31.07 2.28
-4 -4 9 30.61 1.49
4 4 -8 78.02 3.38
4 4 -8 75.62 2.05
-4 -4 8 77.42 2.8
-4 -4 8 76.31 1.98
4 4 -7 40.92 2.36
4 4 -7 38.42 1.4
-4 -4 7 40.95 1.39
-4 -4 7 39.5 1.39
4 4 -6 21.84 1.26
4 4 -6 24.37 1.08
-4 -4 6 23.92 1.61
-4 -4 6 24.8 1.17
4 4 -5 82.52 2.49
4 4 -5 82.16 1.66
-4 -4 5 82.44 1.69
-4 -4 5 87.78 1.93
4 4 -4 34.58 1.15
4 4 -4 35.4 1.1
-4 -4 4 35.43 1.4
-4 -4 4 36.62 1.27
4 4 -3 181.52 3.55
4 4 -3 180.31 2.62
-4 -4 3 181.65 2.77
-4 -4 3 180.54 2.85
4 4 -2 84.62 1.86
4 4 -2 81.51 1.4
-4 -4 2 83.12 1.67
-4 -4 2 84.18 2.02
4 4 -1 111.51 1.97
4 4 -1 115.56 2.31
-4 -4 1 113.25 1.81
-4 -4 1 109.18 2.58
4 4 0 131.98 2.22
4 4 0 130.49 2.24
-4 -4 0 135.98 1.85
-4 -4 0 135.89 3.11
4 4 1 129.5 2.38
4 4 1 137.88 3.31
-4 -4 -1 130.34 1.62
-4 -4 -1 128.46 1.75
4 4 2 28.76 1.17
4 4 2 31.48 1.97
4 4 3 33.13 1.94
4 4 3 31.95 2.2
4 4 4 46.71 1.71
4 4 4 48.48 2.72
4 4 5 81.84 3.35
4 4 5 80.83 2.61
4 4 6 32.23 2.67
4 4 6 32.1 2.96
4 4 7 6.94 2.43
4 4 7 8.17 2.62
4 4 8 14.89 3.03
4 4 8 17.9 3.24
4 5 -12 21.12 2.45
4 5 -12 23.12 2.69
-4 -5 12 23.2 2.89
-4 -5 12 21.56 2.13
4 5 -11 14.1 2.1
4 5 -11 15.16 1.44
-4 -5 11 14.93 2.43
-4 -5 11 14.47 1.79
4 5 -10 35.22 2.22
4 5 -10 33.96 2.19
-4 -5 10 32.4 1.79
-4 -5 10 34.21 1.96
4 5 -9 15.04 1.75
4 5 -9 14.91 1.57
-4 -5 9 14.37 1.31
-4 -5 9 12.84 1.47
4 5 -8 17.48 2.47
-4 -5 8 20.9 2.01
-4 -5 8 20.99 1.44
4 5 -7 85.9 3.34
4 5 -7 82.16 2.22
-4 -5 7 81.29 2.05
-4 -5 7 82.56 1.73
4 5 -6 22.86 1.98
4 5 -6 21.92 1.22
-4 -5 6 20.87 1.62
-4 -5 6 21.49 1.35
4 5 -5 106.91 2.38
4 5 -5 107.96 2.25
-4 -5 5 111.26 2.71
-4 -5 5 110.97 2.54
4 5 -4 102.92 2.11
4 5 -4 102.32 2.14
-4 -5 4 108.35 2.44
-4 -5 4 106.35 2.47
4 5 -3 73.24 2.09
4 5 -3 74.15 1.39
-4 -5 3 73.63 1.8
-4 -5 3 79.65 2.16
4 5 -2 30.31 1.28
4 5 -2 29.77 1.31
-4 -5 2 27.16 1.07
-4 -5 2 27.72 1.09
4 5 -1 1.43 0.76
4 5 -1 0.83 0.65
-4 -5 1 0.34 0.63
-4 -5 1 0.81 0.78
4 5 0 39.74 1.26
4 5 0 38.94 1.65
-4 -5 0 41.36 0.88
-4 -5 0 43.65 2.04
4 5 1 28.47 1.16
-4 -5 -1 29.16 0.69
4 5 2 117.73 2.51
4 5 2 108.43 2.66
4 5 3 6.26 1.71
4 5 3 3.7 1.88
4 5 4 70.9 2.22
4 5 4 68.51 2.42
4 5 5 19.21 2.39
4 5 5 19.96 2.71
4 5 6 3.54 2.26
4 5 6 5.86 2.54
4 5 7 8 2.5
4 5 7 6.91 1.88
4 5 8 3.21 1.73
4 5 8 4.06 1.91
4 6 -11 13.55 3.47
4 6 -11 16.31 2.4
-4 -6 11 16.55 2.55
-4 -6 11 13.02 1.98
4 6 -10 21.38 3.5
4 6 -10 28.54 2.31
-4 -6 10 29.7 1.76
-4 -6 10 26.98 2.14
4 6 -9 33.35 2.2
4 6 -9 32.6 2.07
-4 -6 9 33.93 2.45
-4 -6 9 31.87 1.36
4 6 -8 61.26 2.47
4 6 -8 57.62 2.33
-4 -6 8 63.18 1.97
-4 -6 8 64.85 2.39
4 6 -7 57.48 3.07
4 6 -7 51.13 2.01
-4 -6 7 57.07 2.4
-4 -6 7 52.88 2.17
4 6 -6 30.18 1.55
4 6 -6 32.53 1.55
-4 -6 6 34.05 1.86
-4 -6 6 29.9 1.76
4 6 -5 134.58 3.81
4 6 -5 123.84 2.86
-4 -6 5 128.13 2.47
-4 -6 5 131.05 2.57
4 6 -4 120.35 3.3
4 6 -4 117.74 2.16
-4 -6 4 120.87 2.79
-4 -6 4 123.49 3.23
4 6 -3 151.17 3.57
4 6 -3 152.86 2.66
-4 -6 3 156.26 3.03
-4 -6 3 159.34 3.75
4 6 -2 37.39 1.57
4 6 -2 37.4 1.59
-4 -6 2 34.22 1.21
-4 -6 2 39.02 1.92
4 6 -1 48.07 1.5
4 6 -1 50.3 1.35
-4 -6 1 46.97 1.21
-4 -6 1 50.64 2.27
4 6 0 44.12 1.92
-4 -6 0 43.36 1.21
-4 -6 0 40.51 2.28
4 6 1 47.34 2.07
-4 -6 -1 41.56 0.94
-4 -6 -1 42.72 1.72
4 6 2 1.51 1.56
4 6 2 3.7 1.95
4 6 3 15.77 1.97
4 6 3 15.13 2.36
4 6 4 30.68 1.77
4 6 4 35.32 2.11
4 6 5 25.19 1.82
4 6 5 27.78 3.14
4 6 6 11.98 2.63
4 6 6 9.78 3.04
4 6 7 3.65 1.68
4 6 7 5.07 2.99
4 7 -10 10.6 2
4 7 -10 8.37 2.12
-4 -7 10 6.18 2.38
-4 -7 10 8.7 1.98
4 7 -9 2.48 1.67
4 7 -9 4.5 1.09
-4 -7 9 3.18 1.24
-4 -7 9 2.37 1.76
4 7 -8 35.94 3.18
4 7 -8 33.22 2.12
-4 -7 8 30.99 2.4
-4 -7 8 38 2.27
4 7 -7 22.64 2.65
4 7 -7 25.2 1.77
-4 -7 7 19.7 2
-4 -7 7 23.26 1.98
4 7 -6 30.66 1.68
4 7 -6 27.51 1.19
-4 -7 6 30.92 1.9
-4 -7 6 28.96 2.05
4 7 -5 51.07 2.58
4 7 -5 48.34 1.97
-4 -7 5 48.42 2.05
-4 -7 5 50.87 1.66
4 7 -4 60.42 2.56
4 7 -4 61.04 2.09
-4 -7 4 57.29 2
-4 -7 4 56.1 2.54
4 7 -3 99.89 2.96
4 7 -3 103.4 2.77
-4 -7 3 97.51 2.42
-4 -7 3 97.22 2.38
4 7 -2 13.39 1.43
4 7 -2 12.35 1.02
-4 -7 2 13.64 1.04
-4 -7 2 15.95 1.91
4 7 -1 184.33 3.83
4 7 -1 185.61 3.59
-4 -7 1 181.18 3.18
-4 -7 1 181.62 5.08
4 7 0 40.75 1.39
4 7 0 42.58 2.18
-4 -7 0 42.35 1.14
-4 -7 0 48.27 1.87
4 7 1 126.06 3.8
-4 -7 -1 129.48 4.51
4 7 2 28.22 2.23
4 7 2 28.28 1.88
4 7 3 13.58 2.09
4 7 3 13.68 2.63
4 7 4 19.41 2.38
4 7 4 15.69 1.94
4 7 5 7.92 2.4
4 7 5 7.81 2.93
4 7 6 -1.07 1.46
4 7 6 3.97 2.86
4 8 -10 6.71 3.35
4 8 -10 10.21 2.17
-4 -8 10 8.36 2.38
-4 -8 10 7.11 2.24
4 8 -9 13.99 3.17
4 8 -9 10.05 1.39
-4 -8 9 9.6 2.29
-4 -8 9 12.78 2.25
4 8 -8 21.43 3.06
4 8 -8 21.48 2.07
-4 -8 8 18.56 1.48
-4 -8 8 18.29 2.31
4 8 -7 12.89 1.64
4 8 -7 12.62 1.77
-4 -8 7 10.02 1.89
-4 -8 7 10.74 2.06
4 8 -6 7.64 2.22
4 8 -6 4.81 1.03
-4 -8 6 6.09 1.58
-4 -8 6 6.64 1.22
4 8 -5 26.2 1.62
4 8 -5 26.89 1.9
-4 -8 5 26.23 1.83
-4 -8 5 30.35 1.54
4 8 -4 50.73 1.84
4 8 -4 52.65 2.24
-4 -8 4 50.85 2.04
-4 -8 4 51.89 1.93
4 8 -3 4.56 1.59
4 8 -3 6.43 1.52
-4 -8 3 4.26 1.15
-4 -8 3 4.33 1.88
4 8 -2 25.08 1.79
4 8 -2 25.03 1.89
-4 -8 2 24.14 1.32
-4 -8 2 28.04 2.41
4 8 -1 9.95 1.36
4 8 -1 7.72 1.72
-4 -8 1 9.23 1.02
-4 -8 1 11.11 2.23
4 8 0 44.43 2.08
4 8 0 49.55 2.5
-4 -8 0 46.02 1.35
-4 -8 0 50.96 3.13
4 8 1 28.19 2.29
-4 -8 -1 26.3 0.95
-4 -8 -1 31.28 2.01
4 8 2 17.95 2.22
4 8 3 34 2.72
4 8 3 31.96 2.32
4 8 4 29.85 2.02
4 8 4 31.55 3.69
4 8 5 9.54 1.77
4 8 5 6.91 3.33
4 9 -8 18.91 3.3
4 9 -8 21.45 2.39
-4 -9 8 17.76 2.49
-4 -9 8 20.95 2.58
4 9 -7 10.72 2.81
4 9 -7 11.63 2.03
-4 -9 7 14.04 1.98
-4 -9 7 7.67 2.41
4 9 -6 26.75 2.93
4 9 -6 23.67 1.45
-4 -9 6 26.45 2.06
-4 -9 6 25.97 2.62
4 9 -5 25.84 2.67
4 9 -5 21.67 1.38
-4 -9 5 24.24 1.86
-4 -9 5 23.64 1.76
4 9 -4 40.5 2.67
4 9 -4 36.87 2.35
-4 -9 4 36.05 1.94
-4 -9 4 37.34 1.97
4 9 -3 10.62 2.01
4 9 -3 11.34 1.88
-4 -9 3 13.54 1.41
-4 -9 3 12.75 1.57
4 9 -2 14.66 1.81
4 9 -2 12.09 1.9
-4 -9 2 11.76 1.33
-4 -9 2 13.87 2.45
4 9 -1 41.45 2.1
4 9 -1 44.09 2.59
-4 -9 1 44.13 1.66
-4 -9 1 47.02 3.44
4 9 0 4.54 1.32
4 9 0 7.12 1.93
-4 -9 0 7.23 1.43
-4 -9 0 8.66 2.66
4 9 1 18.38 2.3
-4 -9 -1 19.87 2.04
4 9 2 7.78 2.23
4 9 3 7.93 2.41
4 9 3 6.22 3.18
4 9 4 14.49 2.74
4 9 4 9.36 2.33
4 10 -7 7.94 3.01
4 10 -7 12.09 2.26
-4 -10 7 13.37 2.07
-4 -10 7 7.11 1.73
4 10 -6 8.19 1.76
4 10 -6 9.06 2.07
-4 -10 6 5.37 1.22
-4 -10 6 6.01 2.54
4 10 -5 32.11 3.07
4 10 -5 30.25 2.47
-4 -10 5 28.16 1.44
-4 -10 5 26.98 2.11
4 10 -4 19.75 2.66
4 10 -4 19.87 1.59
-4 -10 4 22.31 1.86
-4 -10 4 26.55 2.92
4 10 -3 7.76 2.14
4 10 -3 7.56 1.99
-4 -10 3 7.74 1.48
-4 -10 3 4.55 2.7
4 10 -2 21.09 2.3
4 10 -2 25.25 2.39
-4 -10 2 21.07 1.69
-4 -10 2 23.05 3.06
4 10 -1 13.71 1.91
4 10 -1 13.63 1.53
-4 -10 1 15.49 1.49
-4 -10 1 11.71 1.97
4 10 0 16.58 1.6
-4 -10 0 17.15 2.16
4 10 1 16.15 2.65
-4 -10 -1 25.83 3.54
4 10 2 1.96 1.47
4 11 -3 7.31 2.29
4 11 -3 2.03 2.23
-4 -11 3 4.72 1.68
-4 -11 3 1.39 2.9
4 11 -2 20.24 2.56
4 11 -2 19.93 2.62
-4 -11 2 19.67 1.96
-4 -11 2 21.35 3.46
5 -11 -4 9.37 2.8
5 -11 -4 7.63 2.27
-5 11 4 8.82 2.12
-5 11 4 6.8 1.65
5 -11 -3 23.82 3.05
5 -11 -3 20.58 2.57
-5 11 3 22.64 2.38
-5 11 3 20.99 1.93
5 -11 -2 8.39 2.61
5 -11 -2 6.3 2.15
-5 11 2 7.57 1.39
-5 11 2 7.55 1.77
5 -11 -1 23.66 2.96
5 -11 -1 25.2 1.66
-5 11 1 24.02 2.44
-5 11 1 23.42 2.17
5 -11 0 2.65 2.43
5 -11 0 1.53 2.09
-5 11 0 3.09 1.32
-5 11 0 4.08 1.17
5 -11 1 12.84 2.63
5 -11 1 13.01 2.31
-5 11 -1 12.92 2.32
-5 11 -1 12.47 2.22
5 -11 2 7.35 2.16
-5 11 -2 8.07 2.3
-5 11 -2 7.46 2.15
5 -11 3 8.65 2.65
5 -11 3 3.3 2.3
-5 11 -3 5.11 2.43
-5 11 -3 8.07 2.34
5 -10 -6 15.88 2.82
5 -10 -6 14.75 2.23
-5 10 6 15.78 1.42
-5 10 6 14.85 1.6
5 -10 -5 2.08 1.5
5 -10 -5 2.61 1.83
-5 10 5 0.72 1.18
-5 10 5 1.35 1.37
5 -10 -4 7.69 2.41
5 -10 -4 6.43 1.86
-5 10 4 6.38 1.21
-5 10 4 5.53 1.47
5 -10 -3 8.06 2.46
5 -10 -3 10.53 1.94
-5 10 3 10.34 1.9
-5 10 3 6.71 1.55
5 -10 -2 21.15 1.7
5 -10 -2 17.75 2.1
-5 10 2 16.38 1.44
-5 10 2 17.14 1.77
5 -10 -1 50.77 2.24
5 -10 -1 48.76 1.84
-5 10 1 47.4 2.82
-5 10 1 45.28 2.36
5 -10 0 16.26 2.46
5 -10 0 16.02 1.34
-5 10 0 14.67 2.16
-5 10 0 17.84 1.9
5 -10 1 13.95 1.61
5 -10 1 14.58 1.96
-5 10 -1 12.81 1.43
-5 10 -1 13.94 1.99
5 -10 2 20.59 2.53
5 -10 2 16.81 1.46
-5 10 -2 17.99 1.57
-5 10 -2 17.13 2.19
5 -10 3 9.53 1.56
5 -10 3 12.38 1.37
-5 10 -3 9.23 1.57
-5 10 -3 13.11 1.47
5 -10 4 4.7 1.48
5 -10 4 3.57 2.09
-5 10 -4 3.29 1.5
-5 10 -4 4.25 1.47
5 -10 5 6.16 1.65
5 -10 5 5.81 1.49
-5 10 -5 7.59 1.65
-5 10 -5 5.62 2.59
-5 9 8 6.83 2.4
-5 9 8 6.47 1.9
-5 9 7 12.96 1.61
-5 9 7 11.91 1.98
-5 9 7 11.35 1.3
-5 9 7 9.1 1.79
5 -9 -6 11.45 1.61
5 -9 -6 12.13 1.77
-5 9 6 12.73 1.97
-5 9 6 10.59 1.31
5 -9 -5 7.53 2.23
5 -9 -5 3.25 1.58
-5 9 5 5.01 1.73
-5 9 5 3.69 1.21
5 -9 -4 42.33 2.94
5 -9 -4 39.43 2.1
-5 9 4 41.47 2.36
-5 9 4 39.04 1.75
5 -9 -3 4.4 2.16
5 -9 -3 4.04 1.51
-5 9 3 5.39 1.11
-5 9 3 5.15 1.26
5 -9 -2 21.75 1.55
5 -9 -2 19.06 1.8
-5 9 2 20.22 2
-5 9 2 17.24 1.55
5 -9 -1 20.67 2.28
5 -9 -1 17.96 1.18
-5 9 1 18 1.97
-5 9 1 16.17 1.06
5 -9 0 1.02 1.9
5 -9 0 0.98 1.48
-5 9 0 5.15 1.66
-5 9 0 0 0.95
5 -9 1 56.62 2.91
5 -9 1 53.48 2.4
-5 9 -1 53.13 2.68
-5 9 -1 49.51 1.73
5 -9 2 0.93 1.25
5 -9 2 1.17 1.57
-5 9 -2 1.38 1.74
-5 9 -2 1.62 1.08
5 -9 3 24.69 2.56
5 -9 3 29.31 2.24
-5 9 -3 28.02 2.38
-5 9 -3 28.43 1.61
5 -9 4 10.18 2.21
5 -9 4 8.51 2.01
-5 9 -4 7.21 1.46
-5 9 -4 8.79 1.45
5 -9 5 10.36 2.3
5 -9 5 13.22 2.21
-5 9 -5 10.02 2.35
-5 9 -5 8.51 2.52
5 -9 6 6.95 2.27
5 -9 6 10.41 2.33
-5 9 -6 4.37 2.42
-5 9 -6 4.34 2.7
-5 8 9 6.09 1.51
-5 8 9 6.07 1.28
-5 8 8 8.33 2.22
-5 8 8 6.06 1.91
-5 8 8 4.95 1.04
-5 8 8 5.16 1.45
-5 8 7 25.68 2.48
-5 8 7 25.03 2.17
-5 8 7 20.24 1.25
-5 8 7 23.1 1.65
5 -8 -6 42.59 2.85
5 -8 -6 38.69 1.83
-5 8 6 38.26 2.34
-5 8 6 34.69 1.47
5 -8 -5 42.64 2.91
5 -8 -5 41.3 1.86
-5 8 5 44.5 2.36
-5 8 5 42.86 1.52
5 -8 -4 32.51 2.53
5 -8 -4 32.98 1.7
-5 8 4 30.78 1.44
-5 8 4 32.47 1.41
5 -8 -3 57.84 2.04
5 -8 -3 54.56 2.01
-5 8 3 54.3 2.42
-5 8 3 52.78 1.72
5 -8 -2 75.4 3.09
5 -8 -2 67.79 2.23
-5 8 2 70.26 2.66
-5 8 2 71.09 2.05
5 -8 -1 17.61 2.06
5 -8 -1 17.72 1.46
-5 8 1 16.75 1.76
-5 8 1 16.72 0.9
5 -8 0 36.94 2.39
5 -8 0 33.56 1.77
-5 8 0 36.23 2.08
-5 8 0 33.74 1.77
5 -8 1 3.32 1.78
5 -8 1 2.25 1.3
-5 8 -1 0.47 1.56
-5 8 -1 4.2 1.33
5 -8 2 25.28 2.22
5 -8 2 26.39 1.84
-5 8 -2 25.75 2.05
-5 8 -2 27.53 1.93
5 -8 3 9.83 1.86
5 -8 3 7.9 1.66
-5 8 -3 7.28 1.78
-5 8 -3 6.28 1.83
5 -8 4 2.86 1.18
5 -8 4 2.01 1.7
-5 8 -4 3.82 1.15
-5 8 -4 4.55 1.85
5 -8 5 15.87 1.43
5 -8 5 17.18 2.13
-5 8 -5 15.6 2.18
-5 8 -5 16.05 1.62
5 -8 6 3.09 1.95
5 -8 6 2.3 2.03
-5 8 -6 1.22 1.97
-5 8 -6 1.98 1.5
5 -8 7 10.16 2.24
5 -8 7 8.04 1.62
-5 8 -7 9.03 2.48
-5 8 -7 11.26 2.81
-5 7 10 13.6 2.56
-5 7 10 13.69 2.29
-5 7 9 5.31 2.11
-5 7 9 3.03 1.93
-5 7 8 8.54 2.11
-5 7 8 7.37 1.9
-5 7 8 6.08 0.88
-5 7 8 7.32 1.55
-5 7 7 41.38 2.67
-5 7 7 40.32 2.37
-5 7 7 34.3 1.5
-5 7 7 36.72 1.61
-5 7 6 37.74 2.28
-5 7 6 35.38 1.19
5 -7 -5 37.72 2.51
5 -7 -5 31.4 1.39
5 -7 -4 167.77 4.61
5 -7 -4 159.57 3.12
-5 7 4 154.86 3.14
-5 7 4 156.81 2.8
5 -7 -3 22.3 2.09
5 -7 -3 23.88 1.27
-5 7 3 22.25 1.13
5 -7 -2 99.82 3.24
5 -7 -2 94.48 2.25
-5 7 2 96.26 2.11
-5 7 2 94.67 2.14
5 -7 -1 18.33 1.26
5 -7 -1 18.85 1.27
-5 7 1 18.51 1.64
-5 7 1 16.46 1.24
5 -7 0 27.38 2.03
5 -7 0 27.08 1.43
-5 7 0 26.74 1.75
-5 7 0 26.95 1.45
5 -7 1 102.29 3.2
5 -7 1 101.68 2.57
-5 7 -1 98.85 2.87
-5 7 -1 96.72 2.02
5 -7 2 52.33 2.33
5 -7 2 48.52 1.41
-5 7 -2 46.85 1.56
-5 7 -2 48.03 1.53
5 -7 3 30.7 1.47
5 -7 3 32.97 1.26
-5 7 -3 30.57 2
-5 7 -3 33.4 1.43
5 -7 4 20.52 2
5 -7 4 25.95 1.9
-5 7 -4 19.77 1.94
-5 7 -4 21.51 1.46
5 -7 5 3.73 1.67
5 -7 5 2.88 1.73
-5 7 -5 3.2 1.11
-5 7 -5 6.84 2
5 -7 6 7.36 1.2
5 -7 6 6.2 1.32
-5 7 -6 5.16 1.28
-5 7 -6 6.91 2.32
5 -7 7 3.25 1.88
5 -7 7 5.04 2.17
-5 7 -7 4.47 2.1
-5 7 -7 2.66 2.61
5 -7 8 2.6 1.96
5 -7 8 2.32 2.43
-5 7 -8 2.06 2.3
-5 7 -8 2.49 2.79
-5 6 10 10.16 2.32
-5 6 10 13.14 2.23
-5 6 9 3.03 2.1
-5 6 9 6.08 1.93
-5 6 8 34.52 2.52
-5 6 8 29.42 2.36
-5 6 8 28.71 1.44
-5 6 7 46.81 2.75
-5 6 7 48.53 1.75
-5 6 7 46.42 1.33
-5 6 7 45.96 1.33
-5 6 6 55.37 2.66
-5 6 6 50.17 1.67
-5 6 6 49.65 1.34
-5 6 6 49.35 1.28
5 -6 -5 53.88 2.54
5 -6 -5 48.79 1.26
-5 6 5 51.92 2.25
-5 6 5 48.2 1.09
5 -6 -4 2.12 1.58
5 -6 -4 1.16 0.72
-5 6 4 0.34 0.88
-5 6 4 1.1 0.62
5 -6 -3 96.1 3.04
5 -6 -3 93.34 1.82
-5 6 3 95.11 2.05
-5 6 3 99.47 1.8
5 -6 -2 12.95 1.6
5 -6 -2 11.79 0.93
-5 6 2 12.39 1.47
-5 6 2 9.93 0.88
5 -6 -1 107.31 2.31
5 -6 -1 105.95 2.12
-5 6 1 100.1 2.06
-5 6 1 102.83 1.7
5 -6 0 44.16 2.03
5 -6 0 42.61 1.44
-5 6 0 45.27 1.87
-5 6 0 43.12 1.52
5 -6 1 16.49 1.1
5 -6 1 15.55 1.22
-5 6 -1 15.07 1.49
-5 6 -1 17.37 1.36
5 -6 2 56.72 1.65
5 -6 2 60.09 1.98
-5 6 -2 59.67 2.12
-5 6 -2 57.69 2.13
5 -6 3 51.7 2.21
5 -6 3 51.51 2.08
-5 6 -3 50.64 2.07
-5 6 -3 54.95 2.33
5 -6 4 3.28 0.95
5 -6 4 4.23 1.48
-5 6 -4 2.51 1.43
-5 6 -4 4.79 1.1
5 -6 5 34.27 2.06
5 -6 5 34.36 2.24
-5 6 -5 33.03 2.14
-5 6 -5 33.32 2.48
5 -6 6 0.58 0.98
5 -6 6 0.58 1.13
-5 6 -6 1.2 1.6
-5 6 -6 -2.06 2.13
5 -6 7 25.44 2.05
5 -6 7 22.69 2.54
-5 6 -7 20.35 2.36
-5 6 -7 21.85 1.96
5 -6 8 10.61 1.91
5 -6 8 7.1 2.48
-5 6 -8 10.19 2.3
-5 6 -8 10.13 2.88
-5 5 11 2.4 2.31
-5 5 11 3.99 1.46
-5 5 10 13.38 2.28
-5 5 10 10.08 1.47
-5 5 9 9.66 1.39
-5 5 9 12.93 2.06
-5 5 8 35.25 1.71
-5 5 8 37.57 2.42
-5 5 7 147.65 3.23
-5 5 7 137.61 3.97
-5 5 7 134.21 1.95
-5 5 6 31.1 1.43
-5 5 6 30.63 1.96
-5 5 6 28.15 0.81
-5 5 6 29.18 0.95
5 -5 -5 19.98 1.22
5 -5 -5 19.54 0.69
-5 5 5 22.99 1.71
5 -5 -4 43.05 1.49
5 -5 -4 45.8 1.11
-5 5 4 41.69 1.32
-5 5 4 43.77 0.86
5 -5 -3 2.07 1.37
5 -5 -3 2.28 0.73
-5 5 3 2.68 1.27
-5 5 3 1.35 0.54
5 -5 -2 57.18 1.56
5 -5 -2 54.94 1.16
-5 5 2 58.11 1.93
-5 5 2 57.09 1.23
5 -5 -1 28.78 1.19
5 -5 -1 31.04 0.99
-5 5 1 31.07 1.55
-5 5 1 32.57 1.1
5 -5 0 50.79 1.97
5 -5 0 50.39 1.36
-5 5 0 53.42 1.78
-5 5 0 50.29 1.48
5 -5 1 84.71 2.44
5 -5 1 85.04 1.97
-5 5 -1 83.21 2.2
-5 5 -1 86.03 2.15
5 -5 2 75.89 2.46
5 -5 2 81.62 2.13
-5 5 -2 75.29 2.15
-5 5 -2 81.76 2.35
5 -5 3 13.57 1.42
5 -5 3 9.04 1.38
-5 5 -3 11.08 1.3
-5 5 -3 14.58 1.56
5 -5 4 13.76 1.48
5 -5 4 13.57 1.59
-5 5 -4 13.1 1.42
-5 5 -4 13.97 1.8
5 -5 5 6.38 1.36
5 -5 5 2.21 1.07
-5 5 -5 4.29 1.4
-5 5 -5 6.08 1.24
5 -5 6 3.9 1.38
5 -5 6 2.66 1.81
-5 5 -6 0.78 0.94
-5 5 -6 0.32 1.98
5 -5 7 26.15 1.97
5 -5 7 24.1 2.65
-5 5 -7 23.48 2.21
-5 5 -7 28.93 1.93
5 -5 8 -0.99 1.56
5 -5 8 -1.55 1.4
-5 5 -8 0.11 1.92
-5 5 -8 -2.63 2.48
5 -5 9 7.49 1.78
5 -5 9 7.28 2.67
-5 5 -9 8.21 2.37
-5 5 -9 6.29 2.04
-5 4 11 33.69 2.87
-5 4 11 31.66 2.91
-5 4 10 29.21 2.63
-5 4 10 31.11 2.62
-5 4 9 16.85 2.15
-5 4 9 12.49 1.39
-5 4 8 99.76 3.56
-5 4 8 101.2 3.44
-5 4 7 8.46 1.77
-5 4 7 7.56 1.77
-5 4 7 6.93 0.28
-5 4 7 7.09 0.31
-5 4 6 112.06 3.27
-5 4 6 111.78 3.22
-5 4 5 9.61 1.55
-5 4 5 6.81 0.95
5 -4 -4 100.3 2.81
5 -4 -4 101.69 1.31
-5 4 4 94.43 2.67
-5 4 4 103.57 1.31
5 -4 -3 102.53 2.74
5 -4 -3 96.18 1.28
-5 4 3 96.59 1.96
-5 4 3 99.28 1.52
5 -4 -2 97 2.6
5 -4 -2 96.01 1.42
-5 4 2 93.59 1.83
-5 4 2 99.5 1.57
5 -4 -1 117.26 2.75
5 -4 -1 115.16 1.82
-5 4 1 110.77 2.02
-5 4 1 117.57 1.98
5 -4 0 9.88 1.23
5 -4 0 9.57 0.8
-5 4 0 7.81 1.08
-5 4 0 11.24 0.91
5 -4 1 3.23 0.72
5 -4 1 5.96 0.88
-5 4 -1 3.64 0.65
-5 4 -1 4.18 0.98
5 -4 2 39.73 1.65
5 -4 2 38.17 1.08
-5 4 -2 41.17 1.06
-5 4 -2 44.37 1.78
5 -4 3 24.46 1.42
5 -4 3 24.02 1.5
-5 4 -3 24.49 0.88
-5 4 -3 24.25 1.17
5 -4 4 52.92 1.85
5 -4 4 47.56 1.49
-5 4 -4 49.01 1.69
-5 4 -4 48.84 2.35
5 -4 5 32 1.65
5 -4 5 31.24 2.11
-5 4 -5 32.32 1.68
-5 4 -5 38.35 2.34
5 -4 6 31.5 1.76
5 -4 6 33.1 2.41
-5 4 -6 29.79 1.87
-5 4 -6 33.46 1.77
5 -4 7 15.1 1.61
5 -4 7 12.8 2.33
-5 4 -7 12.71 1.81
-5 4 -7 15.11 2.63
5 -4 8 8.17 1.06
5 -4 8 9.19 2.39
-5 4 -8 10.66 1.91
-5 4 -8 10.02 2.74
5 -4 9 0 1.04
5 -4 9 0.17 2.39
-5 4 -9 0.7 2.07
-5 4 -9 2.64 1.8
-5 3 12 6.67 2.37
-5 3 12 6.07 2.63
-5 3 11 14.11 2.45
-5 3 11 16 1.75
-5 3 10 9.14 2.14
-5 3 10 10.88 2.29
-5 3 9 34.74 0.63
-5 3 9 36.56 0.65
-5 3 8 47.17 2.44
-5 3 8 41.04 2.55
-5 3 7 100.64 3.16
-5 3 7 98.53 2.43
-5 3 6 10.74 1.06
-5 3 6 9.3 1.04
-5 3 5 19.94 1.1
-5 3 5 23.51 1.63
-5 3 4 120.53 2.37
-5 3 4 121.04 2.98
5 -3 -3 46.33 1.3
5 -3 -3 47 0.68
-5 3 3 44.65 1.69
-5 3 3 47.66 0.75
5 -3 -2 200.75 3.34
5 -3 -2 200.5 2.51
-5 3 2 204.07 3.84
-5 3 2 206 2.95
5 -3 -1 105.49 1.93
5 -3 -1 105.06 1.61
-5 3 1 106.01 1.83
-5 3 1 111.94 1.82
5 -3 0 45.6 1.11
5 -3 0 44.94 1.11
-5 3 0 43.79 1.02
-5 3 0 45.22 1.28
5 -3 1 100.66 1.8
5 -3 1 100.25 2.05
-5 3 -1 97.02 2.01
-5 3 -1 104.99 2.22
5 -3 2 72.17 1.91
5 -3 2 73.68 1.5
-5 3 -2 72.61 1.73
-5 3 -2 75.12 2.11
5 -3 3 -0.86 0.95
5 -3 3 1.66 1.14
-5 3 -3 0.26 0.85
-5 3 -3 3.12 1.2
5 -3 4 8.53 1.09
5 -3 4 7.09 1.47
-5 3 -4 8.39 1.02
-5 3 -4 12.63 1.57
5 -3 5 2.21 0.7
5 -3 5 4.21 1.56
-5 3 -5 4.34 1.09
-5 3 -5 4.37 1.73
5 -3 6 23.32 1.03
5 -3 6 24.24 2.3
-5 3 -6 27.37 1.63
-5 3 -6 28.39 2.56
5 -3 7 29.93 1.69
5 -3 7 30.19 1.8
-5 3 -7 29.21 1.93
-5 3 -7 32.25 2.96
5 -3 8 0.99 1.32
5 -3 8 -0.99 2.25
-5 3 -8 2 1.64
-5 3 -8 2.23 1.62
5 -3 9 5.59 1.59
5 -3 9 7.1 2.77
-5 3 -9 8.52 2.04
-5 3 -9 10.75 2.01
-5 2 12 7.27 1.54
-5 2 12 9.53 2.77
-5 2 11 24.73 2.49
-5 2 11 17.12 1.87
-5 2 10 4.74 2.07
-5 2 10 10.96 2.31
-5 2 9 23.23 0.45
-5 2 9 26.18 0.45
-5 2 8 17.91 1.96
-5 2 8 14.57 1.39
-5 2 7 51.73 1.67
-5 2 7 49.98 2.41
-5 2 6 76.63 2.46
-5 2 6 70.78 2.58
-5 2 5 85.29 2.5
-5 2 5 81.84 1.88
-5 2 4 219.13 4.33
-5 2 4 203.87 3.51
5 -2 -3 17.42 0.35
5 -2 -3 17.31 0.3
-5 2 3 17.7 0.91
-5 2 3 16.76 1.31
5 -2 -2 119.98 2.12
5 -2 -2 125.43 1.67
-5 2 2 125.14 2.61
-5 2 2 123.77 1.62
5 -2 -1 6.88 0.71
5 -2 -1 7.46 0.57
-5 2 1 6.75 0.64
-5 2 1 7.22 0.65
5 -2 0 34.36 1.32
5 -2 0 34.12 1.01
-5 2 0 35.99 1.21
-5 2 0 35.43 1.14
5 -2 1 71.53 1.34
5 -2 1 73.41 1.74
-5 2 -1 71.8 1.58
-5 2 -1 71.2 1.76
5 -2 2 213.03 3.79
5 -2 2 199.7 4
-5 2 -2 207.49 3.44
-5 2 -2 209.39 4.16
5 -2 3 84.03 1.83
5 -2 3 76.9 1.73
-5 2 -3 79 1.69
-5 2 -3 80.93 2.44
5 -2 4 55.84 1.58
5 -2 4 56.16 2.28
-5 2 -4 56.34 1.46
-5 2 -4 54.44 2.36
5 -2 5 8.06 1.01
5 -2 5 11 1.78
-5 2 -5 8.96 1.02
-5 2 -5 9.29 1.91
5 -2 6 16.86 1.25
5 -2 6 17.54 2.21
-5 2 -6 17.19 1.35
-5 2 -6 17.16 2.43
5 -2 7 -0.05 1.05
5 -2 7 0.15 1.28
-5 2 -7 0.91 1.2
-5 2 -7 3.2 2.14
5 -2 8 0.5 1.19
5 -2 8 2.19 1.49
-5 2 -8 2.43 1.44
-5 2 -8 3.73 2.45
5 -2 9 2.18 1.28
5 -2 9 -1.03 1.56
-5 2 -9 1.43 1.64
-5 2 -9 -1.22 2.79
-5 1 12 9.54 2.42
-5 1 12 11.51 2.88
-5 1 11 12.66 2.32
-5 1 11 13.25 2.66
-5 1 10 9.88 2.01
-5 1 10 6.67 1.49
-5 1 10 5.96 0.65
-5 1 9 24.03 2.23
-5 1 9 26.4 1.64
-5 1 8 35.43 1.52
-5 1 8 31.04 1.6
-5 1 7 65.97 2.53
-5 1 7 65.8 2.71
-5 1 6 6.69 1.48
-5 1 6 8.3 1.55
-5 1 5 33 1.68
-5 1 5 32.64 1.78
-5 1 4 122.57 2.75
-5 1 4 116.89 2.79
5 -1 -3 221.02 2.43
5 -1 -3 217.64 2.38
-5 1 3 224.3 4.14
-5 1 3 216.05 4.1
5 -1 -2 262.68 3.47
-5 1 2 287.64 4.98
-5 1 2 262.57 4.11
5 -1 -1 191.72 3.38
5 -1 -1 185.97 2.72
-5 1 1 181.24 2.73
-5 1 1 188.01 2.77
5 -1 0 8.95 0.94
5 -1 0 7.53 0.81
-5 1 0 6.89 0.83
-5 1 0 9.35 0.86
5 -1 1 235.24 3.92
5 -1 1 227.58 4.08
-5 1 -1 223.2 3.55
-5 1 -1 233.89 3.72
5 -1 2 69.95 1.56
5 -1 2 68.54 2.01
-5 1 -2 68.75 1.38
-5 1 -2 68.87 2.11
5 -1 3 20.39 1
5 -1 3 17.73 1.53
-5 1 -3 18.96 0.84
-5 1 -3 21.78 1.64
5 -1 4 36.86 1.2
5 -1 4 35.93 2.07
-5 1 -4 35.29 1.06
-5 1 -4 39.25 2.13
5 -1 5 53.19 1.5
5 -1 5 58.9 2.67
-5 1 -5 50.34 1.41
-5 1 -5 52.13 2.78
5 -1 6 64.98 2.02
5 -1 6 62.31 3.13
-5 1 -6 59.39 1.68
-5 1 -6 63.15 3.37
5 -1 7 13.36 1.13
5 -1 7 18.02 2.47
-5 1 -7 14.35 1.27
-5 1 -7 17.94 1.67
5 -1 8 2.2 1.05
5 -1 8 5.83 2.42
-5 1 -8 3.68 1.25
-5 1 -8 2.69 1.67
5 -1 9 3.51 2.6
-5 1 -9 0.24 2.81
-5 0 12 19.63 2.62
-5 0 12 21.71 3.18
-5 0 11 18.36 2.42
-5 0 10 19.88 2.28
-5 0 10 17.52 0.94
5 0 -9 52.79 1.18
-5 0 9 54.31 2.78
-5 0 9 52.63 0.88
5 0 -8 3.28 0.43
-5 0 8 3.69 1.7
-5 0 8 3.24 0.37
-5 0 7 127.47 3.48
-5 0 6 2.01 1.33
-5 0 6 1.41 1.41
-5 0 5 93.99 2.49
-5 0 5 90.61 2.64
5 0 -4 9.81 0.26
5 0 -4 10.37 0.36
-5 0 4 10.86 0.81
-5 0 4 9.5 0.87
5 0 -3 40.43 0.63
5 0 -3 41.08 0.81
-5 0 3 42.33 1.47
-5 0 3 41.52 1.12
5 0 -2 163.86 2.24
-5 0 2 169.07 3.05
-5 0 2 159.2 2.99
5 0 -1 10.55 0.73
5 0 -1 9.43 0.74
-5 0 1 11.67 0.95
-5 0 1 10.7 0.9
5 0 0 123.34 2.32
5 0 0 119.76 2.26
-5 0 0 121.33 2.08
5 0 1 183.9 3.59
-5 0 -1 183.09 2.75
-5 0 -1 182.91 2.98
5 0 2 72.72 1.45
5 0 2 78.11 2.19
-5 0 -2 70.35 1.26
-5 0 -2 73.61 1.61
5 0 3 92.34 1.64
5 0 3 88.08 1.98
-5 0 -3 90.12 1.44
-5 0 -3 97.89 2.71
5 0 4 13.61 0.79
5 0 4 12.27 1.11
-5 0 -4 14.09 0.7
-5 0 -4 14.53 1.14
5 0 5 65.95 1.7
5 0 5 70.29 2.99
-5 0 -5 63.69 1.31
-5 0 -5 69.59 2.15
5 0 6 13.25 2.26
-5 0 -6 13.15 1.11
-5 0 -6 12.04 2.3
5 0 7 15.86 2.53
-5 0 -7 13.35 1.71
5 0 8 9.76 1.75
-5 0 -8 9.63 2.82
5 0 9 16.04 3.08
-5 0 -9 10.98 3.37
5 1 -12 10.9 2.95
-5 -1 12 9.33 1.57
5 1 -11 11.91 2.72
5 1 -11 7.67 1.15
-5 -1 11 10.55 2.22
5 1 -10 41.77 3.16
5 1 -10 40.45 1.31
-5 -1 10 43.12 2.62
-5 -1 10 37.7 1.14
5 1 -9 12.32 1.49
5 1 -9 11.51 0.8
-5 -1 9 15.23 2
-5 -1 9 12.05 0.87
5 1 -8 116.27 3.97
5 1 -8 117.21 1.99
-5 -1 8 120.8 2.79
-5 -1 8 117.58 1.67
5 1 -7 85.01 2.27
5 1 -7 87.85 1.4
-5 -1 7 90.02 2.94
-5 -1 7 86.97 1.35
5 1 -6 64.16 2.45
5 1 -6 62.45 0.99
-5 -1 6 65.07 2.3
-5 -1 6 61.17 1.01
5 1 -5 61.92 2.26
5 1 -5 65.78 0.97
-5 -1 5 64.08 1.56
5 1 -4 133.12 1.6
-5 -1 4 133.3 2.31
5 1 -3 199.71 2.79
5 1 -3 187.12 2.66
-5 -1 3 184.79 3.54
-5 -1 3 192.72 3.72
5 1 -2 106.4 1.72
5 1 -2 104.71 1.79
-5 -1 2 105.57 2.18
-5 -1 2 102.47 2.15
5 1 -1 0.8 0.45
5 1 -1 0.86 0.75
-5 -1 1 0.65 0.74
-5 -1 1 0.82 0.73
5 1 0 14.64 1.03
5 1 0 13.29 0.73
-5 -1 0 15.22 0.82
-5 -1 0 14.82 0.8
5 1 1 28.52 1.4
5 1 1 25.84 0.99
-5 -1 -1 27.31 0.85
-5 -1 -1 24.97 0.77
5 1 2 105.19 2.13
5 1 2 104.8 2.74
-5 -1 -2 101.3 1.59
-5 -1 -2 106.23 1.65
5 1 3 0.37 0.85
5 1 3 3.92 1.39
-5 -1 -3 0.79 0.59
5 1 4 73.77 2.13
-5 -1 -4 70.88 1.17
5 1 5 29.21 2.46
-5 -1 -5 26.7 0.69
5 1 6 13.02 1.56
-5 -1 -6 12.5 0.47
5 1 7 5.49 2.45
5 1 8 3.22 2.71
5 1 8 4.67 1.71
5 1 9 2.91 3.04
5 1 9 7.85 2.9
5 2 -12 11.05 3.09
-5 -2 12 9.55 2.39
5 2 -11 10.64 2.72
5 2 -11 8.17 1.29
-5 -2 11 8.77 1.45
-5 -2 11 7.06 1.08
5 2 -10 13.37 1.79
5 2 -10 15.53 1.51
-5 -2 10 15.97 2.23
-5 -2 10 15.86 1.04
5 2 -9 13.62 2.36
5 2 -9 10.63 1.29
-5 -2 9 12.35 2.02
-5 -2 9 11.48 0.86
5 2 -8 35.84 2.52
5 2 -8 36.88 1.36
-5 -2 8 35.52 2.3
-5 -2 8 35.22 1.28
5 2 -7 110.36 3.54
5 2 -7 110.77 1.79
-5 -2 7 105.99 3.27
-5 -2 7 112.73 2.09
5 2 -6 74.2 2.65
5 2 -6 71.86 1.45
-5 -2 6 73.24 1.81
-5 -2 6 72.9 1.33
5 2 -5 258.85 5.46
5 2 -5 252.12 3.73
-5 -2 5 256.56 5.19
-5 -2 5 257.56 3.82
5 2 -4 170.98 3.66
5 2 -4 177.64 2.7
-5 -2 4 174.39 3.58
-5 -2 4 171.26 2.64
5 2 -3 203.76 3.97
5 2 -3 201.43 2.98
-5 -2 3 202.03 3.75
-5 -2 3 197.5 3.19
5 2 -2 87.71 1.63
5 2 -2 82.04 1.75
-5 -2 2 84.39 1.88
-5 -2 2 80.49 1.47
5 2 -1 41.06 1.27
5 2 -1 40.12 1.39
-5 -2 1 42.88 1.2
-5 -2 1 41.08 1.23
5 2 0 203.79 3.82
5 2 0 207.94 4.03
-5 -2 0 198.11 3.07
5 2 1 222.23 3.83
5 2 1 219.88 3.9
-5 -2 -1 213.72 3.02
-5 -2 -1 227.75 3.4
5 2 2 69.63 1.73
5 2 2 69.68 2.39
-5 -2 -2 70.33 1.06
5 2 3 39.19 2.1
5 2 3 38.41 2.2
5 2 4 32.59 1.54
5 2 4 31.8 1.57
5 2 5 14.49 2.23
5 2 5 14.63 1.5
5 2 6 8.92 2.32
5 2 6 6.96 2.4
5 2 7 -2.28 2.4
5 2 7 2.33 2.31
5 2 8 10.09 2
5 2 8 12.56 1.89
5 3 -12 10.91 3.28
-5 -3 12 10.88 2.54
5 3 -11 11.3 1.98
5 3 -11 14.12 1.57
-5 -3 11 13.58 1.57
-5 -3 11 12.64 1.35
5 3 -10 15.74 2.87
5 3 -10 17.16 1.43
-5 -3 10 18.1 1.55
-5 -3 10 17.19 1.64
5 3 -9 5.72 2.41
5 3 -9 9.85 1.14
-5 -3 9 9.76 1.95
-5 -3 9 7.8 1.33
5 3 -8 44.3 2.81
5 3 -8 38.9 1.35
-5 -3 8 42.17 2.42
-5 -3 8 40.78 1.33
5 3 -7 63.71 2.85
5 3 -7 64.34 1.52
-5 -3 7 67.67 2.52
-5 -3 7 63.29 1.54
5 3 -6 9.25 1.67
5 3 -6 6.31 0.74
-5 -3 6 7.19 1.45
-5 -3 6 6.17 0.81
5 3 -5 93.79 2.1
5 3 -5 94.01 1.66
-5 -3 5 97.33 2.67
-5 -3 5 94.8 2.19
5 3 -4 76.41 1.74
5 3 -4 81.46 1.52
-5 -3 4 79.28 2.16
-5 -3 4 77.27 1.69
5 3 -3 219.84 4.3
5 3 -3 214.26 3.48
-5 -3 3 221.54 4.09
-5 -3 3 218.26 3.88
5 3 -2 29.05 0.91
5 3 -2 31.44 0.82
-5 -3 2 30.6 0.86
-5 -3 2 32.11 1.33
5 3 -1 90.86 2.07
5 3 -1 89.5 2.32
-5 -3 1 92.14 1.74
-5 -3 1 87.79 1.82
5 3 0 115.87 2.64
5 3 0 109.61 2.78
-5 -3 0 114.22 2.12
-5 -3 0 111.13 2.12
5 3 1 179.95 4.02
5 3 1 172.64 3.33
-5 -3 -1 177.01 2.37
-5 -3 -1 174.48 2.57
5 3 2 117.7 3.18
5 3 2 113.97 3.38
-5 -3 -2 111.21 1.25
5 3 3 33.76 2.13
5 3 3 31.62 2.27
5 3 4 78.64 3.3
5 3 4 76.11 3.4
5 3 5 39.95 2.79
5 3 5 39.87 2.92
5 3 6 10.45 2.33
5 3 6 6.8 2.51
5 3 7 20.25 3.11
5 3 7 27.23 3.22
5 3 8 2.42 2.76
5 3 8 3.16 1.85
5 4 -12 4.34 2.1
5 4 -12 4.07 1.91
-5 -4 12 3.2 2.46
-5 -4 12 3.4 1.55
5 4 -11 12.36 3.14
5 4 -11 9.53 1.74
-5 -4 11 9.57 2.5
-5 -4 11 8.93 1.49
5 4 -10 19.6 3.02
5 4 -10 18.03 1.71
-5 -4 10 15.96 1.61
-5 -4 10 18.42 1.51
5 4 -9 15.84 1.75
5 4 -9 16.58 1.48
-5 -4 9 12.94 1.39
-5 -4 9 16.35 1.33
5 4 -8 113.88 4.31
5 4 -8 118.75 2.69
-5 -4 8 122.13 3.82
-5 -4 8 118.39 2.7
5 4 -7 15.7 2.09
5 4 -7 15.82 1.1
-5 -4 7 16.69 1.84
-5 -4 7 15.25 1.21
5 4 -6 20.78 2.01
5 4 -6 23.17 1.08
-5 -4 6 26.17 1.76
-5 -4 6 24.79 1.25
5 4 -5 16.81 1.1
5 4 -5 17.91 0.99
-5 -4 5 15.12 1.48
-5 -4 5 16.62 1.16
5 4 -4 28.32 1.71
5 4 -4 30.31 1.13
-5 -4 4 31.32 1.04
-5 -4 4 31.01 1.39
5 4 -3 43.09 1.24
5 4 -3 43.01 1.33
-5 -4 3 47.27 1.52
-5 -4 3 45.94 1.64
5 4 -2 10.05 1.08
5 4 -2 11.34 1.08
-5 -4 2 11.43 0.95
-5 -4 2 9.63 1.31
5 4 -1 159.05 2.89
5 4 -1 165.71 3.44
-5 -4 1 161.46 2.74
-5 -4 1 162.55 3.65
5 4 0 122.08 2.95
5 4 0 130.31 3.35
-5 -4 0 124.63 1.95
-5 -4 0 123.05 2.07
5 4 1 128.07 3.3
5 4 1 119.16 2.68
-5 -4 -1 123.97 1.57
-5 -4 -1 121.15 1.68
5 4 2 7.12 1.01
5 4 2 10.13 1.84
5 4 3 13.35 1.91
5 4 3 13.92 2.15
5 4 4 28.52 2.37
5 4 4 19.79 2.6
5 4 5 7.82 2.21
5 4 5 8.52 2.46
5 4 6 17.18 2.68
5 4 6 15.99 2.93
5 4 7 6.53 1.83
5 4 7 13.19 3.05
5 5 -11 15.63 2.21
5 5 -11 14.27 2.17
-5 -5 11 13.86 2.53
-5 -5 11 15.25 1.81
5 5 -10 17.23 3.08
5 5 -10 17.61 1.9
-5 -5 10 20.76 2.47
-5 -5 10 16.66 1.7
5 5 -9 36.16 3.19
5 5 -9 35.33 1.86
-5 -5 9 34.74 2.66
-5 -5 9 30.39 1.85
5 5 -8 58.33 3.39
5 5 -8 55.07 2.03
-5 -5 8 60.07 1.96
-5 -5 8 56.73 2.19
5 5 -7 68.69 2.36
-5 -5 7 76.63 2.82
-5 -5 7 70.38 2.24
5 5 -6 25.12 1.48
5 5 -6 25.48 1.32
-5 -5 6 26.6 1.28
-5 -5 6 29.55 1.57
5 5 -5 78.46 2.82
5 5 -5 79.14 1.98
-5 -5 5 78.12 1.84
-5 -5 5 81.37 2.34
5 5 -4 96.93 2.86
5 5 -4 99.21 2.28
-5 -5 4 103.25 2.56
-5 -5 4 101.71 2.72
5 5 -3 33.52 1.64
5 5 -3 31.54 1.45
-5 -5 3 33.95 1.41
-5 -5 3 34.98 1.8
5 5 -2 25.28 1.36
5 5 -2 24.63 1.42
-5 -5 2 26.19 1.16
-5 -5 2 24.18 1.72
5 5 -1 54.51 1.56
5 5 -1 53.81 1.42
-5 -5 1 55.24 1.64
-5 -5 1 57.42 1.72
5 5 0 16.56 1.06
-5 -5 0 18.38 0.74
5 5 1 66.51 2.57
5 5 1 66.65 2.87
-5 -5 -1 63.38 1.07
5 5 2 7.72 1.77
5 5 2 10.76 2.03
5 5 3 37.23 2.47
5 5 3 33.44 1.91
5 5 4 26.55 2.5
5 5 4 24.23 2.92
5 5 5 9.92 2.42
5 5 5 11.9 2.79
5 5 6 1.85 1.55
5 5 6 2.32 2.82
5 5 7 8.79 2.95
5 5 7 10.62 3.33
5 6 -11 7.8 2.21
5 6 -11 9.06 2.15
-5 -6 11 8.08 2.48
-5 -6 11 7.06 1.91
5 6 -10 10.69 3.18
5 6 -10 9.94 1.94
-5 -6 10 13.86 2.42
-5 -6 10 10.58 1.89
5 6 -9 20.44 3.14
5 6 -9 19.76 1.89
-5 -6 9 19.78 1.59
-5 -6 9 22.02 1.96
5 6 -8 49.13 2.36
5 6 -8 50.55 2.15
-5 -6 8 52.37 2.7
5 6 -7 7.54 2.19
5 6 -7 6.53 1.3
-5 -6 7 4.98 1.7
-5 -6 7 5.36 1.51
5 6 -6 35.92 2.53
5 6 -6 33.32 1.63
-5 -6 6 31.66 2.01
-5 -6 6 36.38 2.03
5 6 -5 75.73 3.02
5 6 -5 75.42 2.25
-5 -6 5 75.57 2.53
-5 -6 5 75.7 1.97
5 6 -4 130.51 3.57
5 6 -4 124.87 3.02
-5 -6 4 127.08 2.43
-5 -6 4 125.89 3.56
5 6 -3 72.25 2.42
5 6 -3 75.94 2.3
-5 -6 3 75.32 2.05
-5 -6 3 71.24 1.97
5 6 -2 85.63 2.37
5 6 -2 84.18 1.94
-5 -6 2 86.12 1.96
-5 -6 2 92.52 3.06
5 6 -1 81.48 2.09
5 6 -1 80.26 2
-5 -6 1 82.22 1.75
-5 -6 1 81.97 3.21
5 6 0 53.28 2.34
-5 -6 0 51.2 1.4
-5 -6 0 54.99 2.87
5 6 1 10.5 1.73
5 6 1 5.65 1.42
5 6 2 2.93 1.8
5 6 2 6.27 2.17
5 6 3 10.42 1.35
5 6 3 9.76 2.61
5 6 4 22.31 1.74
5 6 4 18.08 2.06
5 6 5 14.65 1.72
5 6 5 10.27 1.96
5 6 6 10.54 2.86
5 6 6 9.08 2.19
5 7 -10 19.33 3.3
5 7 -10 9.99 2.12
-5 -7 10 9.12 1.59
-5 -7 10 11.66 2.13
5 7 -9 12.19 3.07
5 7 -9 9.82 1.92
-5 -7 9 11.85 2.28
-5 -7 9 9.33 1.97
5 7 -8 17.97 2.81
5 7 -8 14.93 1.24
-5 -7 8 18.05 2.18
-5 -7 8 14.55 2.01
5 7 -7 5.06 1.52
5 7 -7 8.57 1.51
-5 -7 7 8.2 1.81
-5 -7 7 8.95 1.82
5 7 -6 14.52 2.31
5 7 -6 14.49 1.57
-5 -7 6 14.82 1.81
-5 -7 6 14.63 1.95
5 7 -5 25.45 2.27
5 7 -5 26.53 1.71
-5 -7 5 26.06 1.77
-5 -7 5 25.37 2.16
5 7 -4 46.89 2.44
5 7 -4 46.66 2.05
-5 -7 4 46.22 1.93
-5 -7 4 47.44 2.56
5 7 -3 1.74 1.47
5 7 -3 3.45 1.35
-5 -7 3 1.46 1.09
-5 -7 3 -0.02 1.13
5 7 -2 61.13 2.41
-5 -7 2 60.01 1.75
-5 -7 2 61.26 3.03
5 7 -1 37.82 1.68
5 7 -1 40.04 1.55
-5 -7 1 39.32 1.32
-5 -7 1 43.71 2.83
5 7 0 29.59 1.55
5 7 0 33.07 2.23
-5 -7 0 32.24 1.07
-5 -7 0 36.51 1.91
5 7 1 50.29 3.32
-5 -7 -1 40.58 1.12
5 7 2 14.98 1.41
5 7 2 13.79 2.73
5 7 3 26.36 2.66
5 7 3 24.16 3.23
5 7 4 15.29 2.61
5 7 4 8.89 2.05
5 7 5 -0.78 2.47
5 7 5 2.43 1.94
5 8 -9 13.65 3.45
5 8 -9 18.9 2.34
-5 -8 9 20.46 1.68
-5 -8 9 20.17 2.54
5 8 -8 15.31 2.97
5 8 -8 10.94 1.95
-5 -8 8 14.83 2.15
-5 -8 8 11.82 2.26
5 8 -7 11.04 2.61
5 8 -7 9.48 1.78
-5 -8 7 10.07 2.14
5 8 -6 12.44 1.59
5 8 -6 11.77 1.74
-5 -8 6 15.68 1.84
-5 -8 6 11.53 1.47
5 8 -5 55.08 3.09
5 8 -5 57.12 2.44
-5 -8 5 52.86 2.4
-5 -8 5 55.15 3.02
5 8 -4 13.47 2.01
5 8 -4 13.77 1.12
-5 -8 4 10.8 1.52
-5 -8 4 14.41 1.5
5 8 -3 15.85 1.84
5 8 -3 13.45 1.17
-5 -8 3 15.49 1.37
-5 -8 3 13.52 1.52
5 8 -2 16.14 1.7
5 8 -2 14.62 1.86
-5 -8 2 14.62 1.28
-5 -8 2 18.58 2.42
5 8 -1 6.91 1.36
5 8 -1 10.26 1.18
-5 -8 1 9.58 1.08
-5 -8 1 10.46 2.44
5 8 0 14.19 2.06
-5 -8 0 13.93 1.3
-5 -8 0 18.63 2.7
5 8 1 7.1 2.06
5 8 2 11.59 2.35
5 8 2 14.29 1.97
5 8 3 20.56 1.83
5 8 3 23.17 3.45
5 8 4 7.3 2.61
5 8 4 7.29 3.38
5 9 -7 9.09 1.85
5 9 -7 9.93 2.02
-5 -9 7 7.91 2.09
-5 -9 7 13.6 2.57
5 9 -6 19.56 2.87
5 9 -6 16.58 2.12
-5 -9 6 17.81 2.11
-5 -9 6 20.35 2.72
5 9 -5 24.98 2.68
5 9 -5 25.71 2.15
-5 -9 5 20.52 1.93
-5 -9 5 22.94 2.84
5 9 -4 16.29 2.35
5 9 -4 16.19 1.31
-5 -9 4 15.89 1.66
-5 -9 4 14.94 2.67
5 9 -3 6.15 1.97
5 9 -3 7.17 1.91
-5 -9 3 8.58 1.39
-5 -9 3 7.15 2.47
5 9 -2 30.2 2.23
5 9 -2 30.5 2.46
-5 -9 2 31.48 2.11
-5 -9 2 32.57 3.16
5 9 -1 11.92 1.63
5 9 -1 14.66 2.21
-5 -9 1 12.83 1.3
-5 -9 1 16.12 2.9
5 9 0 13.18 2.24
-5 -9 0 13.25 3.05
5 9 1 13.58 1.59
5 9 2 6.75 2.36
5 9 2 3.8 3.2
5 10 -5 19.48 2.82
5 10 -5 16.69 2.32
-5 -10 5 18.66 2.02
-5 -10 5 19.88 3.09
5 10 -4 7.09 1.52
5 10 -4 5.44 1.38
-5 -10 4 6.89 1.7
-5 -10 4 8.87 1.82
5 10 -3 7.22 2.32
5 10 -3 12.03 2.24
-5 -10 3 13.74 1.65
-5 -10 3 13.37 3.08
5 10 -2 11.34 2.12
5 10 -2 11.18 2.38
-5 -10 2 13.08 1.58
-5 -10 2 16.4 3.13
5 10 -1 6.03 2.27
-5 -10 1 6.52 3.09
6 -11 -3 3.22 2.75
6 -11 -3 2 2.11
-6 11 3 -0.37 2.09
-6 11 3 0.19 1.7
6 -11 -2 26.74 3.29
6 -11 -2 23.45 1.75
-6 11 2 22.73 1.83
-6 11 2 24.29 2.22
6 -11 -1 4.14 2.69
6 -11 -1 1.39 2.1
-6 11 1 -1.66 2.22
-6 11 1 3.36 1.78
6 -11 0 9.21 1.84
6 -11 0 8.14 1.46
-6 11 0 9.24 1.56
-6 11 0 10.75 2.09
6 -11 1 5.23 2.78
6 -11 1 6.21 2.18
-6 11 -1 9 2.37
-6 11 -1 6.06 2.18
6 -11 2 1.08 1.77
6 -11 2 4.27 2.11
-6 11 -2 0.25 2.35
-6 11 -2 2.39 1.46
6 -10 -6 11.48 2.8
-6 10 6 4.75 1.37
6 -10 -5 7.3 2.76
6 -10 -5 4.46 1.81
-6 10 5 4.61 1.34
-6 10 5 4.45 1.45
6 -10 -4 0.56 1.64
6 -10 -4 2.45 1.7
-6 10 4 2.19 1.96
-6 10 4 1.82 1.44
6 -10 -3 4.37 2.67
6 -10 -3 5.55 1.85
-6 10 3 10.07 2.07
-6 10 3 4.19 1.54
6 -10 -2 7.01 2.53
6 -10 -2 8.35 1.84
-6 10 2 7.87 1.36
-6 10 2 6.22 1.68
6 -10 -1 11.87 2.61
6 -10 -1 7.39 1.96
-6 10 1 9 2.13
-6 10 1 7.32 1.8
6 -10 0 11.89 2.61
6 -10 0 16.39 2.01
-6 10 0 9.18 2.2
-6 10 0 9.62 1.91
6 -10 1 6.22 1.59
6 -10 1 3.84 1.19
-6 10 -1 1.28 2.12
-6 10 -1 5.8 1.88
6 -10 2 12.59 2.7
6 -10 2 13.95 2.17
-6 10 -2 13.47 1.62
-6 10 -2 14.74 2.34
6 -10 3 9.75 2.58
6 -10 3 5.51 1.31
-6 10 -3 2.35 1.45
-6 10 -3 3.02 2.3
6 -10 4 2.49 2.48
6 -10 4 3.38 2.12
-6 10 -4 1.35 2.37
-6 10 -4 1.48 1.57
-6 9 7 5.36 1.71
-6 9 7 7.59 2.14
6 -9 -6 11.24 2.65
6 -9 -6 5.81 1.58
-6 9 6 9.85 2.09
-6 9 6 6.24 1.19
6 -9 -5 9.13 2.58
6 -9 -5 5.39 1.53
-6 9 5 8.1 1.93
-6 9 5 5.41 1.25
6 -9 -4 18.92 2.74
6 -9 -4 16.5 1.72
-6 9 4 20.24 2.12
-6 9 4 15.8 1.47
6 -9 -3 6.8 1.56
6 -9 -3 7.56 1.55
-6 9 3 7.55 1.95
-6 9 3 7.72 1.36
6 -9 -2 11.22 2.33
6 -9 -2 7.39 1.57
-6 9 2 6.88 1.26
-6 9 2 6.9 1.48
6 -9 -1 10.21 2.26
6 -9 -1 6.06 1.57
-6 9 1 6.57 1.89
-6 9 1 4.61 1.51
6 -9 0 3.2 2.31
6 -9 0 4.59 1.03
-6 9 0 5.17 1.9
-6 9 0 4.93 1.58
6 -9 1 18.92 1.68
6 -9 1 17.15 1.88
-6 9 -1 16.76 2.21
-6 9 -1 18.62 2.03
6 -9 2 1.34 2.21
6 -9 2 3.86 1.1
-6 9 -2 3.7 1.99
-6 9 -2 4.01 1.2
6 -9 3 5.19 1.46
6 -9 3 3.35 1.79
-6 9 -3 3.25 1.32
-6 9 -3 1.65 2.12
6 -9 4 6.63 1.55
6 -9 4 6.57 1.98
-6 9 -4 2.69 2.26
-6 9 -4 8.15 2.37
6 -9 5 5.85 2.4
6 -9 5 4.53 2.18
-6 9 -5 6.26 2.28
-6 9 -5 3.42 1.63
-6 8 8 9.87 2.51
-6 8 8 4.3 1.39
-6 8 7 31.42 3.01
-6 8 7 30.42 2.6
6 -8 -6 8.36 1.55
6 -8 -6 6.46 1.57
-6 8 6 6.6 1.96
-6 8 6 5.14 0.96
6 -8 -5 13.58 2.51
6 -8 -5 13.16 1.33
-6 8 5 14.96 1.35
-6 8 5 12.83 1.14
6 -8 -4 9.96 2.4
6 -8 -4 11.18 1.3
-6 8 4 9.54 1.9
-6 8 4 9.74 1.47
6 -8 -3 30.25 2.65
6 -8 -3 23.84 1.55
-6 8 3 27.19 1.46
-6 8 3 26.21 1.47
6 -8 -2 40.18 1.87
6 -8 -2 39.52 1.82
-6 8 2 38.63 2.42
-6 8 2 43.46 1.77
6 -8 -1 46.92 2.86
6 -8 -1 43.76 1.89
-6 8 1 43.67 2.41
-6 8 1 39.47 1.91
6 -8 0 41.31 2.74
6 -8 0 36.43 1.9
-6 8 0 36.2 1.59
-6 8 0 37.25 1.41
6 -8 1 6.4 1.33
6 -8 1 8.25 1.49
-6 8 -1 6.11 1.13
-6 8 -1 7.34 1.65
6 -8 2 22.79 2.42
6 -8 2 22.85 1.25
-6 8 -2 21.85 2.19
-6 8 -2 24.68 2.11
6 -8 3 6.38 1.36
6 -8 3 3.18 1.72
-6 8 -3 4.97 1.23
-6 8 -3 5.81 1.27
6 -8 4 3.04 1.32
6 -8 4 7.74 1.82
-6 8 -4 3.37 1.89
-6 8 -4 5.51 2.19
6 -8 5 8.32 1.43
6 -8 5 8.71 2.03
-6 8 -5 7.87 1.41
-6 8 -5 12.76 2.48
6 -8 6 1.16 2.09
6 -8 6 1.17 1.3
-6 8 -6 0.19 2.08
-6 8 -6 1.25 2.59
-6 7 9 -0.03 1.46
-6 7 9 2.81 2.07
-6 7 8 23.78 2.76
-6 7 8 19.8 2.47
-6 7 7 5.98 2.18
-6 7 7 3.36 1.24
-6 7 6 4.97 1.2
-6 7 6 5.29 0.74
-6 7 6 5.25 0.88
6 -7 -5 19.4 1.59
6 -7 -5 18.42 1.06
-6 7 5 23.79 2.03
-6 7 5 18.57 0.95
6 -7 -4 53.25 3.03
6 -7 -4 47.23 1.54
-6 7 4 50.76 2.55
-6 7 4 49.12 1.43
6 -7 -3 69.69 2.29
6 -7 -3 63.78 1.8
-6 7 3 69.04 2.71
-6 7 3 68.54 2.14
6 -7 -2 22.48 2.42
6 -7 -2 26.88 1.33
-6 7 2 22.64 1.35
6 -7 -1 51.65 2.78
6 -7 -1 50.04 1.76
-6 7 1 48.71 2.38
-6 7 1 48.77 1.82
6 -7 0 9.06 1.99
6 -7 0 9.64 1.28
-6 7 0 9.8 1.1
-6 7 0 8.51 1.39
6 -7 1 35.51 2.44
-6 7 -1 37.12 2.1
-6 7 -1 38.55 2.01
6 -7 2 14.02 2.02
6 -7 2 15.49 1.52
-6 7 -2 11.73 1.21
-6 7 -2 13.7 1.86
6 -7 3 10.58 1.93
6 -7 3 9.84 1.08
-6 7 -3 8.28 1.12
-6 7 -3 12.98 1.95
6 -7 4 21.95 1.51
6 -7 4 23.95 2.06
-6 7 -4 20.76 2.07
-6 7 -4 20.69 2.43
6 -7 5 15.55 1.37
6 -7 5 14.62 2.14
-6 7 -5 12.22 2.05
-6 7 -5 12.13 1.68
6 -7 6 4.35 2.02
6 -7 6 6.3 2.13
-6 7 -6 3.87 2.03
-6 7 -6 9.62 2.64
6 -7 7 4.26 1.39
6 -7 7 6.65 1.56
-6 7 -7 4.32 2.27
-6 7 -7 8.64 1.82
-6 6 10 10.07 2.57
-6 6 10 6.3 2.42
-6 6 9 6.64 1.58
-6 6 9 14.31 2.32
-6 6 8 14.96 2.44
-6 6 8 14.17 2.23
-6 6 7 11.78 2.11
-6 6 7 6.84 1.32
-6 6 6 30.8 2.54
-6 6 6 31.57 2.29
-6 6 6 28.01 0.93
6 -6 -5 7.78 1.3
6 -6 -5 5.59 0.85
-6 6 5 7.17 1.74
-6 6 5 5.65 0.59
6 -6 -4 123.37 4.15
6 -6 -4 115.07 2.01
-6 6 4 116.24 2.71
-6 6 4 119.15 2.31
6 -6 -3 12.9 1.31
6 -6 -3 12.91 1.14
-6 6 3 10.15 1.13
-6 6 3 12.51 0.93
6 -6 -2 126.86 3.75
6 -6 -2 116.72 2.26
-6 6 2 118.31 3.31
-6 6 2 115.09 2.36
6 -6 -1 38.79 1.56
6 -6 -1 40.63 1.4
-6 6 1 41.19 1.98
-6 6 1 35.39 1.49
6 -6 0 36.77 1.56
6 -6 0 38.38 1.49
-6 6 0 34.72 1.92
-6 6 0 35.62 1.66
6 -6 1 9.51 1.18
6 -6 1 10.05 1.25
-6 6 -1 11.13 1
-6 6 -1 11.17 1.48
6 -6 2 22.72 1.96
6 -6 2 20.91 1.07
-6 6 -2 19.45 1.17
-6 6 -2 20.2 1.81
6 -6 3 7.87 1.67
6 -6 3 5.08 1.49
-6 6 -3 5.24 0.98
-6 6 -3 6.58 1.12
6 -6 4 17.73 1.95
6 -6 4 15.85 1.86
-6 6 -4 15.65 1.2
-6 6 -4 22.29 2.29
6 -6 5 1.67 1.69
6 -6 5 0.42 1.82
-6 6 -5 3.1 1.05
-6 6 -5 6.58 2.12
6 -6 6 10.61 2.03
6 -6 6 7.53 2.26
-6 6 -6 11.01 1.98
-6 6 -6 12.43 2.61
6 -6 7 -0.55 1.87
6 -6 7 2.52 2.24
-6 6 -7 4.23 1.94
-6 6 -7 4.99 2.61
-6 5 11 10.05 2.73
-6 5 11 12.27 2.71
-6 5 10 3.56 2.31
-6 5 10 -1.01 2.25
-6 5 9 14.52 2.44
-6 5 9 9.96 2.4
-6 5 8 20.41 2.39
-6 5 8 19.01 2.4
-6 5 7 66.85 2.25
-6 5 7 59.93 2.1
-6 5 6 30.54 1.66
-6 5 6 28.06 2.27
-6 5 5 129.64 3.82
-6 5 5 120.72 1.44
6 -5 -4 95.31 2.44
6 -5 -4 91.64 1.35
-6 5 4 92.28 2.98
-6 5 4 92.31 1.38
6 -5 -3 29.46 2.13
-6 5 3 24.36 1.83
-6 5 3 24.43 0.88
6 -5 -2 16.25 1.88
6 -5 -2 18.16 0.84
-6 5 2 20.04 1.64
-6 5 2 17.61 0.96
6 -5 -1 3.23 1.49
6 -5 -1 4.62 0.8
-6 5 1 2.37 1.34
-6 5 1 4.3 0.9
6 -5 0 35.45 1.39
6 -5 0 35.2 1.29
-6 5 0 34.12 1.72
-6 5 0 35.06 1.49
6 -5 1 63.58 1.82
6 -5 1 65.93 1.93
-6 5 -1 66.77 2.19
-6 5 -1 62.58 2.18
6 -5 2 101.11 2.37
6 -5 2 107.59 2.82
-6 5 -2 107.73 2.89
-6 5 -2 106.55 3.22
6 -5 3 12.29 1.62
6 -5 3 9.81 1
-6 5 -3 8.97 0.91
-6 5 -3 10.93 1.77
6 -5 4 41.95 2.25
6 -5 4 40.07 1.59
-6 5 -4 40.61 1.96
-6 5 -4 41.7 2.6
6 -5 5 2.75 1.02
6 -5 5 6.06 1.81
-6 5 -5 3.28 0.97
-6 5 -5 4.09 1.34
6 -5 6 6.53 1.76
6 -5 6 6.72 2.12
-6 5 -6 11.51 2.37
6 -5 7 0.39 1.66
6 -5 7 1.82 2.17
-6 5 -7 2 1.85
-6 5 -7 3.36 2.49
6 -5 8 -2.04 1.76
6 -5 8 -4.04 2.48
-6 5 -8 0.86 2.06
-6 5 -8 -0.9 2.82
-6 4 11 18.74 2.79
-6 4 11 12.1 2.82
-6 4 10 5.73 1.56
-6 4 10 7.28 2.34
-6 4 9 33.38 2.81
-6 4 9 35.52 2.79
-6 4 8 12.37 1.44
-6 4 8 14.99 2.24
-6 4 7 59.13 2.96
-6 4 7 53.06 1.97
-6 4 6 58.14 1.97
-6 4 6 58.44 2.74
-6 4 5 98.68 3.33
-6 4 5 94.25 3.1
6 -4 -4 95.31 3.15
-6 4 4 88.76 2.87
6 -4 -3 63.59 1.81
6 -4 -3 59.71 1.1
-6 4 3 62.45 2.26
-6 4 3 61.6 1.07
6 -4 -2 71.9 2.49
6 -4 -2 70.64 1.26
-6 4 2 70.06 2.28
-6 4 2 68.96 1.4
6 -4 -1 70.22 1.76
6 -4 -1 65.57 1.42
-6 4 1 68.28 1.61
-6 4 1 71.54 1.98
6 -4 0 5.69 1.36
6 -4 0 4.19 0.56
-6 4 0 3.68 1.17
-6 4 0 4.49 1.01
6 -4 1 47.53 2.03
6 -4 1 45.71 1.62
-6 4 -1 42.47 1.72
-6 4 -1 43.44 1.77
6 -4 2 2.56 1.34
6 -4 2 1.04 0.76
-6 4 -2 2.62 1.12
-6 4 -2 1.62 1.35
6 -4 3 34.65 1.77
6 -4 3 29.79 1.24
-6 4 -3 30.11 1.58
6 -4 4 7.07 1.47
6 -4 4 9.69 1.62
-6 4 -4 8.61 1.3
-6 4 -4 9.8 1.86
6 -4 5 14.99 1.66
6 -4 5 16.83 2.04
-6 4 -5 15.49 1.05
-6 4 -5 12.76 2.3
6 -4 6 11.79 1.68
6 -4 6 14.01 2.38
-6 4 -6 13.7 1.67
-6 4 -6 12.98 2.56
6 -4 7 3.23 1.61
6 -4 7 3.84 2.25
-6 4 -7 1.29 1.69
-6 4 -7 5.5 2.48
6 -4 8 10.03 1.9
6 -4 8 8.63 1.73
-6 4 -8 9.04 2.12
-6 4 -8 12.35 3.09
-6 3 11 4.05 1.53
-6 3 11 1.57 2.58
-6 3 10 19.84 2.57
-6 3 10 12.72 2.73
-6 3 9 40.75 2.8
-6 3 9 33.23 1.94
-6 3 8 62.48 2.15
-6 3 8 53.93 3.12
-6 3 7 143.55 4.35
-6 3 7 133.9 4.28
-6 3 6 13.14 1.27
-6 3 6 15.07 1.89
-6 3 5 66.97 2.65
-6 3 5 68.07 2.61
-6 3 4 24.64 1.92
-6 3 4 24.1 1.78
6 -3 -3 17.18 1.71
6 -3 -3 16.39 0.54
-6 3 3 16.11 1.01
-6 3 3 15.85 0.62
6 -3 -2 135.11 3.38
6 -3 -2 128.73 1.85
-6 3 2 129.13 3.04
-6 3 2 131.92 2.06
6 -3 -1 46.51 1.85
6 -3 -1 42.91 1.11
-6 3 1 42.95 1.71
-6 3 1 42.3 1.25
6 -3 0 113.3 2.85
6 -3 0 114.89 2.26
-6 3 0 117.08 2.58
-6 3 0 114.77 2.44
6 -3 1 101.22 2.67
6 -3 1 94.4 2.34
-6 3 -1 94.67 2.31
-6 3 -1 100.81 1.96
6 -3 2 30.39 1.62
6 -3 2 31.19 1.58
-6 3 -2 30.6 1.35
-6 3 -2 27.46 1.78
6 -3 3 1.06 1.16
6 -3 3 1.51 1.29
-6 3 -3 0.78 0.97
-6 3 -3 1.35 1.46
6 -3 4 2.91 1.18
6 -3 4 1.46 0.97
-6 3 -4 1.38 1.03
-6 3 -4 3.06 1.72
6 -3 5 2.39 1.25
6 -3 5 -0.04 1.71
-6 3 -5 2.07 1.16
-6 3 -5 1.14 1.96
6 -3 6 3.75 1.38
6 -3 6 3.67 2.03
-6 3 -6 2.09 1.4
-6 3 -6 4.59 1.44
6 -3 7 1.54 1.47
6 -3 7 2.9 1.47
-6 3 -7 4.46 1.61
-6 3 -7 3.27 1.59
6 -3 8 2.64 1.59
6 -3 8 1.45 2.52
-6 3 -8 0.63 1.95
-6 3 -8 5.26 1.79
-6 2 12 6.04 2.59
-6 2 12 2.89 2.87
-6 2 11 10.51 2.51
-6 2 11 11.46 2.82
-6 2 10 20.65 2.67
-6 2 10 20.01 1.79
-6 2 9 26.21 1.7
-6 2 9 31.52 2.69
-6 2 8 34 1.75
-6 2 8 34.07 2.62
-6 2 7 65.79 2.87
-6 2 7 62.29 2.95
-6 2 6 47.9 2.37
-6 2 6 48.29 2.51
-6 2 5 168.01 4.12
-6 2 5 153.92 3.97
-6 2 4 25.34 1.78
-6 2 4 23.35 1.73
6 -2 -3 125.94 1.65
6 -2 -3 134.91 1.63
-6 2 3 133.26 3.32
-6 2 3 129.68 2.46
6 -2 -2 49.02 1.89
6 -2 -2 44.98 1.11
-6 2 2 43.83 1.26
-6 2 2 44.94 0.99
6 -2 -1 44.5 1.27
6 -2 -1 45.23 1.12
-6 2 1 45.45 1.61
-6 2 1 44.91 1.25
6 -2 0 57.9 1.91
6 -2 0 54.06 1.49
-6 2 0 54.79 1.67
-6 2 0 59.68 1.65
6 -2 1 30.59 1.5
6 -2 1 28.73 1.4
-6 2 -1 29.57 1.25
-6 2 -1 25.8 1.49
6 -2 2 37.69 1.55
6 -2 2 38.08 1.78
-6 2 -2 39.34 1.37
-6 2 -2 38.84 1.34
6 -2 3 40.2 1.59
6 -2 3 40.78 1.98
-6 2 -3 37.97 1.34
-6 2 -3 40.25 2.17
6 -2 4 24.79 1.44
6 -2 4 27.22 2.03
-6 2 -4 24.3 1.25
-6 2 -4 26.39 2.21
6 -2 5 30.71 1.63
6 -2 5 32.28 1.66
-6 2 -5 31.11 1.49
-6 2 -5 29.57 1.77
6 -2 6 0.95 1.17
6 -2 6 -0.81 1.94
-6 2 -6 2.04 1.18
-6 2 -6 -1 2.13
6 -2 7 3.84 1.67
6 -2 7 3.12 2.27
-6 2 -7 1.87 1.45
-6 2 -7 3.8 2.54
6 -2 8 -1.03 2.41
-6 2 -8 1.18 2.67
-6 1 12 18.63 2.77
-6 1 12 10.32 2.06
-6 1 11 3.83 2.38
-6 1 11 4.38 2.73
-6 1 10 32.23 2.86
-6 1 10 35.29 3.13
-6 1 9 11.95 1.43
-6 1 9 14.53 2.45
-6 1 8 50.36 1.89
-6 1 8 44.84 1.96
-6 1 7 38.57 1.61
-6 1 7 39.6 2.47
-6 1 6 10.37 1.73
-6 1 6 9.61 1.77
-6 1 5 29.67 1.91
-6 1 5 28.67 1.36
-6 1 4 69.21 2.35
-6 1 4 66.28 2.34
6 -1 -3 45.23 0.89
6 -1 -3 47.33 0.89
-6 1 3 48.41 1.35
-6 1 3 46.88 1.29
6 -1 -2 104.92 1.66
-6 1 2 112.72 2.61
-6 1 2 104.68 1.98
6 -1 -1 45.7 1.21
-6 1 1 44.14 1.53
6 -1 0 49.13 1.62
6 -1 0 42.49 1.43
-6 1 0 44.87 1.07
-6 1 0 47.53 1.5
6 -1 1 104.33 2.39
6 -1 1 105.3 2.52
-6 1 -1 103.03 1.69
-6 1 -1 112.65 2.61
6 -1 2 9.83 1.02
-6 1 -2 7.6 0.86
-6 1 -2 8.23 0.94
6 -1 3 11.64 1.07
6 -1 3 11.74 1.65
-6 1 -3 12.28 0.87
-6 1 -3 13.25 1.71
6 -1 4 40.64 1.51
6 -1 4 44.53 2.46
-6 1 -4 39.41 1.3
-6 1 -4 41.71 2.54
6 -1 5 16.29 1.19
6 -1 5 13.67 1.46
-6 1 -5 17.22 1.15
-6 1 -5 19.41 1.56
6 -1 6 29.72 1.84
-6 1 -6 26.36 1.46
-6 1 -6 29.92 2.81
6 -1 7 5.28 1.47
6 -1 7 5.79 1.63
-6 1 -7 6.19 1.68
-6 1 -7 8.51 1.66
6 -1 8 8.02 1.83
-6 1 -8 5.84 2.98
-6 0 12 8.13 2.58
-6 0 12 5.29 1.96
-6 0 11 26.77 1.89
-6 0 11 25.24 3.32
-6 0 10 35.97 1.97
-6 0 10 32.73 3.25
-6 0 9 14.82 2.35
-6 0 9 19.25 2.6
-6 0 8 58.79 3.04
-6 0 8 60.04 3.18
-6 0 7 17.69 1.98
-6 0 7 15.7 1.39
-6 0 6 48.47 2.28
-6 0 6 43.64 2.4
-6 0 5 98.1 2.83
-6 0 5 94.74 2.26
6 0 -4 13.25 0.44
6 0 -4 13.74 0.54
-6 0 4 16.01 1.48
-6 0 4 14.4 1.5
6 0 -3 65.8 1.05
6 0 -3 64.65 1.14
-6 0 3 65.24 1.52
-6 0 3 63.29 1.5
6 0 -2 1.37 0.61
6 0 -2 1.38 0.63
-6 0 2 0.59 1.04
-6 0 2 0.87 0.64
6 0 -1 14.72 0.97
6 0 -1 14.02 0.99
-6 0 1 13.87 1.15
-6 0 1 14.75 1.1
6 0 0 92 1.71
6 0 0 92.55 2.26
-6 0 0 92.7 2.08
-6 0 0 90.18 1.93
6 0 1 1.24 0.74
6 0 1 0.78 0.74
-6 0 -1 0.02 0.72
6 0 2 49.75 1.4
6 0 2 45 1.44
-6 0 -2 45.87 1.16
-6 0 -2 50.82 1.48
6 0 3 1.03 1.03
6 0 3 2.04 0.95
-6 0 -3 1.92 0.81
-6 0 -3 1.13 1.55
6 0 4 32.47 1.19
6 0 4 35.77 1.64
-6 0 -4 31.18 1.05
-6 0 -4 34.53 1.66
6 0 5 7.02 0.84
6 0 5 5.58 2.14
-6 0 -5 7.63 1.08
-6 0 -5 8.34 1.39
6 0 6 2.73 0.98
6 0 6 2.05 2.28
-6 0 -6 3.69 0.78
-6 0 -6 3.89 2.31
6 0 7 8.26 2.7
-6 0 -7 12.38 2.81
6 0 8 5.21 2.97
-6 0 -8 10.4 2.09
-6 -1 12 5.21 2.56
-6 -1 12 6.61 2.01
-6 -1 11 9.53 1.6
-6 -1 10 23.89 2.64
6 1 -9 28.57 1.89
-6 -1 9 26.47 2.53
6 1 -8 54.32 0.76
-6 -1 8 48.78 0.75
6 1 -7 64.29 0.82
-6 -1 7 75.9 2.86
6 1 -6 15.36 0.48
6 1 -6 13.17 0.52
-6 -1 6 13.44 1.83
-6 -1 6 15.85 1.94
6 1 -5 70.96 1.25
-6 -1 5 78.12 2.54
-6 -1 5 74.95 2.67
6 1 -4 88.67 1.48
6 1 -4 88.42 1.72
-6 -1 4 94.7 2.61
-6 -1 4 88.07 2.01
6 1 -3 127.16 1.97
6 1 -3 123.61 2.41
-6 -1 3 125.67 2.31
-6 -1 3 123.05 2.33
6 1 -2 73.44 1.53
6 1 -2 67.88 1.61
-6 -1 2 73.11 1.98
-6 -1 2 69.59 1.47
6 1 -1 159.87 2.94
6 1 -1 152.47 3.02
-6 -1 1 144.75 2.93
-6 -1 1 145.18 2.39
6 1 0 7.38 1.14
6 1 0 8.07 1.17
-6 -1 0 6.48 0.89
-6 -1 0 5.85 0.87
6 1 1 105.18 2.19
6 1 1 106.85 2.22
-6 -1 -1 109.04 2.09
-6 -1 -1 104.2 1.85
6 1 2 4.62 1.54
6 1 2 6.9 1.51
-6 -1 -2 6.98 0.73
-6 -1 -2 7.25 0.6
6 1 3 19.89 2.01
6 1 3 18.82 1.97
6 1 4 9.99 1.32
6 1 4 9.42 2.08
-6 -1 -4 7.75 0.7
6 1 5 3.7 1.35
6 1 5 2.15 2.11
-6 -1 -5 2.41 0.48
-6 -1 -5 2.68 0.47
6 1 6 3.76 1.51
6 1 6 4.31 1.51
6 1 7 8.52 2.78
6 1 7 2.3 2.75
6 1 8 1.47 2.88
6 1 8 3.58 2.79
6 2 -12 3.93 3.14
-6 -2 12 5.25 2.49
6 2 -11 14.89 3.17
-6 -2 11 12 1.66
6 2 -10 7.81 2.77
-6 -2 10 9.64 2.35
6 2 -9 4.61 1.6
6 2 -9 5.73 0.76
-6 -2 9 7.43 1.33
-6 -2 9 5.39 0.91
6 2 -8 54.04 2.23
6 2 -8 57.84 1.21
-6 -2 8 61.57 2.98
6 2 -7 4 1.9
6 2 -7 2.98 0.58
-6 -2 7 3.12 1.69
-6 -2 7 3 0.75
6 2 -6 72.44 2.04
6 2 -6 70.81 1.25
-6 -2 6 71.48 1.94
-6 -2 6 66.7 1.32
6 2 -5 68.49 1.89
6 2 -5 69.55 1.24
-6 -2 5 72.24 2.5
-6 -2 5 67.78 1.68
6 2 -4 70.95 1.56
6 2 -4 69.1 1.52
-6 -2 4 70.12 2.27
-6 -2 4 68.69 2.42
6 2 -3 77.23 1.56
6 2 -3 72.52 1.69
-6 -2 3 76.07 2.18
-6 -2 3 74.73 2.24
6 2 -2 18.92 1.04
6 2 -2 19.35 1.22
-6 -2 2 20.27 1.24
-6 -2 2 21.08 1.32
6 2 -1 119.59 2.62
6 2 -1 116.78 2.77
-6 -2 1 117.74 2.42
-6 -2 1 119.67 2.49
6 2 0 60.68 1.48
6 2 0 61.85 2.1
-6 -2 0 60.14 1.46
-6 -2 0 60.34 1.46
6 2 1 48.7 1.96
6 2 1 42.61 2.16
-6 -2 -1 42.08 1.14
-6 -2 -1 44.31 1.28
6 2 2 28.48 1.34
6 2 2 29.96 2.07
-6 -2 -2 27.73 0.82
-6 -2 -2 27.12 0.69
6 2 3 49.25 1.85
-6 -2 -3 42.51 0.84
6 2 4 36.8 2.76
6 2 4 38.44 2.88
6 2 5 12.86 1.6
6 2 5 15.04 2.58
6 2 6 5.24 2.43
6 2 6 1.6 2.43
6 2 7 5.57 2.72
6 2 7 4.33 2.72
6 3 -11 11.24 2.07
-6 -3 11 8.3 1.68
6 3 -10 15.31 2.96
6 3 -10 14.12 1.26
-6 -3 10 16.47 2.44
6 3 -9 13.26 2.62
6 3 -9 13.25 1.13
-6 -3 9 16.68 2.25
-6 -3 9 11.67 1.06
6 3 -8 8.24 2.38
6 3 -8 12.44 1.01
-6 -3 8 11.99 2.06
-6 -3 8 9.62 0.97
6 3 -7 8.92 2.1
6 3 -7 11.15 1.14
-6 -3 7 10.56 1.85
-6 -3 7 11.4 0.94
6 3 -6 6.52 1.14
6 3 -6 6.05 0.98
-6 -3 6 9.08 1.63
-6 -3 6 5.77 0.89
6 3 -5 42.99 2.25
6 3 -5 44.79 1.47
-6 -3 5 48.82 2.11
-6 -3 5 44.88 1.43
6 3 -4 112.57 3.12
6 3 -4 112.58 2.11
-6 -3 4 111.2 2.89
-6 -3 4 111.92 2.44
6 3 -3 11.84 0.94
-6 -3 3 12.72 1.26
6 3 -2 85.52 1.6
6 3 -2 90.33 2.36
-6 -3 2 86.8 2.11
-6 -3 2 89.79 2.25
6 3 -1 13.65 1.23
6 3 -1 11.46 1.42
-6 -3 1 11.54 0.96
-6 -3 1 11.89 1.02
6 3 0 9.81 1.4
6 3 0 11.36 1.58
-6 -3 0 10.47 1.08
-6 -3 0 9.85 1.06
6 3 1 13.35 1.05
6 3 1 11.74 1.15
-6 -3 -1 10.56 0.85
-6 -3 -1 10.46 0.63
6 3 2 9.09 1.73
6 3 2 8.5 1.19
-6 -3 -2 7.56 0.48
-6 -3 -2 7.8 0.35
6 3 3 29.86 1.62
6 3 3 31.93 2.52
6 3 4 41.12 2.93
6 3 4 38.01 3.02
6 3 5 13.7 2.56
6 3 5 15.28 2.66
6 3 6 16.16 2.91
6 3 6 14.43 1.96
6 3 7 12.71 3.06
6 3 7 12.32 3.21
6 4 -11 17.99 3.43
-6 -4 11 11.83 1.77
6 4 -10 17.99 2.03
6 4 -10 17 1.65
-6 -4 10 19.68 1.67
6 4 -9 29.66 3.15
6 4 -9 27.66 2.03
-6 -4 9 28.86 1.76
-6 -4 9 25.97 1.59
6 4 -8 53.83 3.44
6 4 -8 53.63 1.84
-6 -4 8 59.17 2.03
-6 -4 8 52.37 1.94
6 4 -7 7.05 2.15
6 4 -7 8.49 1.04
-6 -4 7 13.24 1.85
-6 -4 7 7.97 1.57
6 4 -6 54.66 1.96
6 4 -6 50.84 1.52
-6 -4 6 56.38 2.44
-6 -4 6 57.88 1.86
6 4 -5 47.39 1.69
6 4 -5 48.77 1.46
-6 -4 5 47.89 2.15
-6 -4 5 51.29 1.82
6 4 -4 14.76 1.12
6 4 -4 16.52 1.08
-6 -4 4 14.76 0.97
-6 -4 4 15.46 0.92
6 4 -3 4.05 1.25
6 4 -3 2.32 0.96
-6 -4 3 2.28 0.69
-6 -4 3 1.84 1.25
6 4 -2 13.2 1.23
6 4 -2 13.72 1.01
-6 -4 2 12.17 1.09
-6 -4 2 12.51 1.28
6 4 -1 40.24 1.3
6 4 -1 42.51 2.1
-6 -4 1 40.78 1.3
-6 -4 1 39.76 1.45
6 4 0 36.36 1.91
6 4 0 35.47 2.16
-6 -4 0 35.06 1.04
6 4 1 46.38 1.63
6 4 1 47.23 2.59
6 4 2 8.23 1.86
6 4 2 11.56 2.14
6 4 3 33.19 1.76
6 4 3 33.25 2.76
6 4 4 7.72 1.42
6 4 4 1.85 2.48
6 4 5 5.91 2.41
6 4 5 5.44 2.63
6 4 6 6.97 1.75
6 4 6 6.93 2.92
6 5 -11 5.1 3.27
-6 -5 11 5.7 1.66
6 5 -10 16.02 3.17
6 5 -10 12.81 1.85
-6 -5 10 11.19 2.51
-6 -5 10 9.71 1.71
6 5 -9 14.73 2.96
6 5 -9 15.19 2.12
-6 -5 9 18.79 2.39
-6 -5 9 14.12 1.7
6 5 -8 21.9 2.8
6 5 -8 19.96 1.51
-6 -5 8 22.44 2.26
-6 -5 8 21.47 1.74
6 5 -7 42.34 2.88
6 5 -7 37.94 1.64
-6 -5 7 36.31 2.39
-6 -5 7 41.17 1.99
6 5 -6 62.48 3.1
-6 -5 6 58.83 1.84
-6 -5 6 64.28 2.31
6 5 -5 93.47 3.37
6 5 -5 91.53 2.34
-6 -5 5 92.83 2.87
-6 -5 5 91.88 2.79
6 5 -4 54.45 2.42
6 5 -4 53.71 1.81
-6 -5 4 52.01 1.46
-6 -5 4 58.91 2.26
6 5 -3 6.08 0.91
6 5 -3 7.41 0.77
-6 -5 3 6.51 1.16
-6 -5 3 6.11 1.61
6 5 -2 46.82 1.82
6 5 -2 46.56 1.9
-6 -5 2 46.23 2.38
6 5 -1 4.89 1.41
6 5 -1 6.57 1.73
-6 -5 1 4.59 0.85
-6 -5 1 3.91 1.01
6 5 0 24.78 1.86
6 5 0 19.95 1.45
-6 -5 0 19.42 1.12
6 5 1 18.46 1.97
6 5 1 15.34 1.51
6 5 2 36.19 1.75
6 5 2 33.56 2.85
6 5 3 18.91 2.47
6 5 3 21.22 2.84
6 5 4 21.02 2.68
6 5 4 17.22 3.03
6 5 5 4.3 1.6
6 5 5 4.16 1.86
6 5 6 2.7 2.7
6 5 6 2.84 2
6 6 -10 7.42 3.25
6 6 -10 10.55 1.91
-6 -6 10 8.81 2.51
-6 -6 10 7.46 1.94
6 6 -9 13 2.97
6 6 -9 11.49 1.19
-6 -6 9 13.34 1.52
-6 -6 9 10.97 1.9
6 6 -8 11.65 2.66
6 6 -8 9.49 1.56
-6 -6 8 10.22 2.1
-6 -6 8 10.45 1.82
6 6 -7 8.32 2.33
6 6 -7 7.19 1.35
-6 -6 7 8.56 1.88
-6 -6 7 5.96 1.71
6 6 -6 14.34 2.26
6 6 -6 13.23 1.39
-6 -6 6 13.08 1.84
-6 -6 6 13.82 1.83
6 6 -5 41.45 1.78
6 6 -5 39.56 1.27
-6 -6 5 41.01 2.13
-6 -6 5 39.84 2.25
6 6 -4 9.89 1.14
6 6 -4 7.09 0.88
-6 -6 4 6.64 0.92
-6 -6 4 9.85 1.14
6 6 -3 27.59 1.89
6 6 -3 29.99 1.75
-6 -6 3 26.81 1.07
-6 -6 3 29.57 2.21
6 6 -2 69.8 2.41
6 6 -2 76.96 2.61
-6 -6 2 72.65 2.02
-6 -6 2 79.93 3.27
6 6 -1 37.69 2.16
-6 -6 1 33.46 1.3
6 6 0 46.17 1.72
6 6 0 44.72 2.94
-6 -6 0 40.07 1.64
6 6 1 15.24 2.13
6 6 1 15.11 1.66
6 6 2 3.94 1.98
6 6 2 1.32 1.55
6 6 3 10.59 2.39
6 6 3 8.15 1.92
6 6 4 4.87 2.42
6 6 4 1.09 1.81
6 6 5 4.19 2.88
6 6 5 7.74 2.12
6 7 -9 6.12 3.09
6 7 -9 6.74 1.88
-6 -7 9 13.04 2.34
-6 -7 9 9.05 2.18
6 7 -8 15.55 2.93
6 7 -8 12.81 1.8
-6 -7 8 13.04 2.26
-6 -7 8 13.42 2.23
6 7 -7 11.29 2.54
6 7 -7 10.42 1.66
-6 -7 7 11.57 1.97
-6 -7 7 7.97 2.05
6 7 -6 25.36 2.66
6 7 -6 23.77 1.8
-6 -7 6 28.11 2.12
-6 -7 6 25.21 2.32
6 7 -5 13.61 1.45
6 7 -5 14.62 1.64
-6 -7 5 15.14 1.75
-6 -7 5 15.32 2.11
6 7 -4 2.61 1.8
6 7 -4 3.41 0.94
-6 -7 4 3.35 1.3
-6 -7 4 3.16 1.95
6 7 -3 19.03 1.87
6 7 -3 16.16 1.75
-6 -7 3 16 1.45
-6 -7 3 18.16 2.32
6 7 -2 15.53 1.64
6 7 -2 14.86 1.21
-6 -7 2 15.98 1.25
-6 -7 2 17.03 2.46
6 7 -1 32.26 2.17
-6 -7 1 25.27 1.23
-6 -7 1 27.63 1.93
6 7 0 10 2.07
6 7 0 11.48 1.68
-6 -7 0 10.54 1.11
-6 -7 0 7.75 0.97
6 7 1 21.21 2.43
6 7 1 23.36 1.94
6 7 2 12.13 1.6
6 7 2 15.9 1.92
6 7 3 11.98 2.55
6 7 3 6.86 2.06
6 8 -8 6.43 2.96
6 8 -8 7.97 1.95
-6 -8 8 7.95 1.45
-6 -8 8 5.98 2.34
6 8 -7 7.82 2.8
6 8 -7 10.81 1.89
-6 -8 7 10.44 1.35
-6 -8 7 13.51 2.32
6 8 -6 12.82 2.65
6 8 -6 14.72 1.83
-6 -8 6 15.05 1.97
-6 -8 6 15.26 1.62
6 8 -5 19.95 2.46
6 8 -5 13.55 1.92
-6 -8 5 17.39 1.83
-6 -8 5 18.52 2.53
6 8 -4 10.52 1.21
-6 -8 4 11.03 1.6
-6 -8 4 11.84 2.46
6 8 -3 12.94 1.98
6 8 -3 12.53 1.92
-6 -8 3 12.98 1.45
-6 -8 3 14.88 2.6
6 8 -2 32.69 2.12
6 8 -2 35.92 2.42
-6 -8 2 32.58 1.61
-6 -8 2 35.3 3.24
6 8 -1 3.17 1.26
6 8 -1 5.89 1.94
-6 -8 1 2.68 1.03
-6 -8 1 1.41 2.57
6 8 0 25.78 2.56
6 8 0 24.11 3.31
6 8 1 2.82 2.17
6 8 1 2.11 2.75
6 8 2 10.23 1.62
6 8 2 8.94 3.31
6 9 -6 17.86 2.94
6 9 -6 16.15 2.18
-6 -9 6 17.41 2.13
-6 -9 6 17.04 2.94
6 9 -5 8.04 2.43
6 9 -5 9.27 1.3
-6 -9 5 8.28 1.82
-6 -9 5 6.88 2.62
6 9 -4 2.4 2.17
6 9 -4 6.62 1.91
-6 -9 4 4.3 1.55
-6 -9 4 4.78 2.63
6 9 -3 10.39 2.17
6 9 -3 12.65 2.13
-6 -9 3 10.3 1.52
-6 -9 3 13.81 2.84
6 9 -2 3.99 1.71
6 9 -2 6.05 2.03
-6 -9 2 2.29 1.29
-6 -9 2 7.49 2.89
6 9 -1 10.44 1.52
-6 -9 1 12.15 3.19
6 9 0 3.58 2.26
6 9 0 2.68 3.02
7 -10 -4 5.1 2.92
7 -10 -4 2.66 1.74
-7 10 4 0.9 2.25
-7 10 4 1.89 1.97
7 -10 -3 4.29 1.81
7 -10 -3 1.29 1.84
-7 10 3 1.5 1.4
-7 10 3 3.5 1.61
7 -10 -2 1.38 1.79
7 -10 -2 2.19 1.89
-7 10 2 5.13 2.24
-7 10 2 5.55 1.72
7 -10 -1 4.55 2.68
7 -10 -1 6.95 1.9
-7 10 1 1.74 1.46
-7 10 1 6.13 1.89
7 -10 0 4.75 2.67
7 -10 0 4.67 1.94
-7 10 0 2.3 1.48
-7 10 0 5.09 1.9
7 -10 1 1.92 2.65
7 -10 1 1.45 1.19
-7 10 -1 3.73 2.22
-7 10 -1 1.7 2.04
7 -10 2 11.16 1.91
7 -10 2 8.35 2.15
-7 10 -2 7.26 2.46
-7 10 -2 10.62 2.46
7 -9 -6 5.21 1.85
-7 9 6 6.76 2.27
7 -9 -5 9.03 2.96
-7 9 5 8.82 2.3
7 -9 -4 27.2 3.14
7 -9 -4 19.32 1.75
-7 9 4 21.69 2.42
-7 9 4 17.79 1.58
7 -9 -3 4.56 2.64
7 -9 -3 3.15 1.54
-7 9 3 5.02 1.36
-7 9 3 3.69 1.42
7 -9 -2 10.49 2.76
7 -9 -2 9.39 1.74
-7 9 2 12.13 2.17
-7 9 2 11.49 1.68
7 -9 -1 5.81 2.53
7 -9 -1 7.07 1.68
-7 9 1 3.58 2.08
-7 9 1 6.76 1.7
7 -9 0 0.07 2.42
7 -9 0 0.66 1.59
-7 9 0 2.79 2
-7 9 0 0.46 1.72
7 -9 1 18.18 2.86
7 -9 1 16.87 2.01
-7 9 -1 16.86 2.44
-7 9 -1 19.13 2.21
7 -9 2 0.97 1.5
7 -9 2 0.47 1.11
-7 9 -2 2.68 2.03
-7 9 -2 -0.21 1.99
7 -9 3 0.62 2.42
7 -9 3 2.85 1.9
-7 9 -3 6.16 2.11
-7 9 -3 4.43 2.25
7 -9 4 6.68 2.59
-7 9 -4 4.53 1.51
-7 9 -4 0.83 2.53
-7 8 8 11.5 2.89
-7 8 8 7.14 1.58
-7 8 7 9.8 1.85
-7 8 7 9.28 2.45
-7 8 6 16.32 2.39
7 -8 -5 10.82 2.65
-7 8 5 10.82 2.24
7 -8 -4 5.68 1.64
7 -8 -4 4.86 1.23
-7 8 4 7.36 2.01
-7 8 4 4.89 1.14
7 -8 -3 8.02 2.46
7 -8 -3 5.56 1.29
-7 8 3 7.07 1.95
-7 8 3 4.92 1.23
7 -8 -2 8.31 2.54
7 -8 -2 9.03 1.39
-7 8 2 10.68 2.1
-7 8 2 8.89 1.43
7 -8 -1 5.7 2.35
7 -8 -1 5.36 1.39
-7 8 1 5.17 1.97
-7 8 1 4.8 1.51
7 -8 0 20.11 1.75
7 -8 0 19.38 1.72
-7 8 0 18.64 2.19
-7 8 0 18.39 1.28
7 -8 1 1.67 2.22
7 -8 1 3.82 1.52
-7 8 -1 4.83 1.89
-7 8 -1 3.82 1.78
7 -8 2 27.91 1.91
7 -8 2 26.09 1.41
-7 8 -2 25.76 1.64
-7 8 -2 28.25 2.4
7 -8 3 2.43 1.38
7 -8 3 2.39 1.76
-7 8 -3 3.06 1.9
-7 8 -3 4.14 2.07
7 -8 4 4.88 1.48
7 -8 4 4.6 1.98
-7 8 -4 3.82 1.34
-7 8 -4 6.23 1.62
7 -8 5 2.89 1.48
7 -8 5 2.15 2.14
-7 8 -5 3.29 2.18
-7 8 -5 5.35 2.64
-7 7 9 9.94 2.87
-7 7 9 9.49 2.58
-7 7 8 11.17 2.7
-7 7 8 4.21 2.43
-7 7 7 16.77 2.8
-7 7 7 15.35 1.58
-7 7 6 2.47 2.31
-7 7 6 1.96 1.3
7 -7 -5 10.71 1.65
7 -7 -5 9.94 0.83
-7 7 5 12.1 2.14
7 -7 -4 26.58 2.82
7 -7 -4 22.36 1.15
-7 7 4 22.46 1.6
-7 7 4 20.91 1.5
7 -7 -3 4.78 2.17
7 -7 -3 1.24 1
-7 7 3 2.51 1.77
-7 7 3 3.09 1.02
7 -7 -2 34.38 2.77
7 -7 -2 32.08 1.52
-7 7 2 34.81 2.38
-7 7 2 30.24 1.61
7 -7 -1 4.81 2.05
7 -7 -1 2.86 1.17
-7 7 1 2.33 1.72
-7 7 1 4.09 1.34
7 -7 0 9.77 2.11
7 -7 0 8.13 1.35
-7 7 0 6.01 1.16
-7 7 0 9.24 1.51
7 -7 1 33.38 1.83
7 -7 1 32.09 1.88
-7 7 -1 30.8 2.27
-7 7 -1 34.39 2.19
7 -7 2 2.62 2.03
7 -7 2 3.48 1.48
-7 7 -2 0.51 1.09
-7 7 -2 3.19 1.78
7 -7 3 1.56 2
7 -7 3 2.92 1.64
-7 7 -3 4.1 1.73
-7 7 -3 5.59 2.04
7 -7 4 9.38 2.25
7 -7 4 6.6 1.95
-7 7 -4 9.96 1.96
-7 7 -4 7.67 2.41
7 -7 5 2.39 2.06
7 -7 5 2.25 1.99
-7 7 -5 0.91 1.22
-7 7 -5 -0.32 1.52
-7 6 9 18.48 2.89
-7 6 9 16.26 1.8
-7 6 8 13.9 2.73
-7 6 8 14.46 2.55
-7 6 7 10.22 2.56
-7 6 7 11.54 2.39
-7 6 6 0.76 2.15
-7 6 6 1.3 1.96
7 -6 -5 9.45 1.49
-7 6 5 7.69 1.29
7 -6 -4 3.19 2.04
7 -6 -4 3.01 0.84
-7 6 4 4.59 1.83
-7 6 4 1.78 0.67
7 -6 -3 49.66 2.99
-7 6 3 47.23 2.56
-7 6 3 43.12 1.37
7 -6 -2 19.81 2.33
7 -6 -2 17.5 1.12
-7 6 2 18.95 2
7 -6 -1 68.34 3.29
7 -6 -1 66.19 1.91
-7 6 1 67.38 2.66
-7 6 1 69.8 2.15
7 -6 0 28.11 2.37
7 -6 0 25.94 1.45
-7 6 0 24.46 1.98
-7 6 0 25.22 1.75
7 -6 1 28.61 2.43
7 -6 1 32.23 1.71
-7 6 -1 26.95 1.38
-7 6 -1 31.81 2.07
7 -6 2 5.08 1.97
7 -6 2 9.35 1.53
-7 6 -2 7.8 1.67
-7 6 -2 9.56 1.87
7 -6 3 9.77 1.31
7 -6 3 7.46 1.1
-7 6 -3 9.63 1.7
-7 6 -3 9.13 2.05
7 -6 4 2.23 1.81
7 -6 4 1.6 1.11
-7 6 -4 2.24 1.6
-7 6 -4 -0.03 2.09
7 -6 5 11.32 1.42
7 -6 5 10.66 2.22
-7 6 -5 10.98 1.98
-7 6 -5 11.6 1.71
7 -6 6 1.53 2.08
7 -6 6 1.65 2.27
-7 6 -6 2.69 1.23
-7 6 -6 4.28 1.7
-7 5 10 9.9 2.86
-7 5 10 8.97 1.81
-7 5 9 6.08 1.69
-7 5 9 7.27 2.54
-7 5 8 8.08 2.46
-7 5 8 8.82 1.51
-7 5 7 32.88 1.85
-7 5 7 26.37 1.77
-7 5 6 -0.49 2.05
-7 5 6 1.02 1.17
-7 5 5 44.38 2.99
-7 5 5 46.86 2.73
7 -5 -4 36.72 1.8
-7 5 4 32.29 1.54
7 -5 -3 19.48 1.57
-7 5 3 17.76 1.29
7 -5 -2 40.2 2.58
7 -5 -2 37.58 1.2
-7 5 2 41.12 2.17
-7 5 2 41.06 1.37
7 -5 -1 -1.86 1.69
7 -5 -1 1.14 0.87
-7 5 1 -0.74 1.42
-7 5 1 1.73 1.01
7 -5 0 18.64 2.09
7 -5 0 17.52 1.26
-7 5 0 17.6 1.69
-7 5 0 18.91 1.47
7 -5 1 31.19 1.52
7 -5 1 28.57 1.6
-7 5 -1 31.05 1.88
-7 5 -1 29.82 1.91
7 -5 2 10.62 1.85
7 -5 2 9.26 1.5
-7 5 -2 11.69 1.54
-7 5 -2 11.74 1.79
7 -5 3 8.98 1.21
7 -5 3 11.16 1.66
-7 5 -3 9.72 1.57
-7 5 -3 8.69 1.97
7 -5 4 21.22 2.19
7 -5 4 18.77 2.16
-7 5 -4 21.45 1.82
-7 5 -4 20.74 1.64
7 -5 5 9.42 1.3
7 -5 5 10.48 2.25
-7 5 -5 12.66 1.83
-7 5 -5 13.96 1.71
7 -5 6 5.79 1.89
7 -5 6 6.71 2.28
-7 5 -6 4.57 1.88
-7 5 -6 6.25 1.73
-7 4 10 16.52 2.94
-7 4 10 13.57 2.94
-7 4 9 2.48 2.43
-7 4 9 3.28 2.33
-7 4 8 19.72 1.75
-7 4 8 23.98 2.64
-7 4 7 -0.46 2.08
-7 4 7 -1.04 2.02
-7 4 6 36.07 2.61
-7 4 6 26.17 2.6
-7 4 5 43.33 1.9
-7 4 5 39.91 2.57
-7 4 4 63.61 2.68
7 -4 -3 134.13 4.06
-7 4 3 120.89 3.69
7 -4 -2 42.71 2.43
7 -4 -2 39.32 1.33
-7 4 2 36.78 1.43
-7 4 2 37.18 1.55
7 -4 -1 29.64 2.08
7 -4 -1 28.95 1.15
-7 4 1 28.17 1.8
-7 4 1 26.46 1.33
7 -4 0 17.44 1.88
7 -4 0 16.83 1.18
-7 4 0 17.01 1.56
-7 4 0 16.79 1.42
7 -4 1 1.75 1.54
7 -4 1 1.51 0.74
-7 4 -1 1.26 0.82
-7 4 -1 2.3 1.38
7 -4 2 3.08 1
7 -4 2 1.82 1.35
-7 4 -2 5.79 1.26
-7 4 -2 3.56 1.57
7 -4 3 5.03 1.55
7 -4 3 1.12 0.99
-7 4 -3 1.31 1.28
-7 4 -3 3.05 1.14
7 -4 4 11.41 1.81
7 -4 4 12.54 1.94
-7 4 -4 13.06 1
-7 4 -4 11.5 2.24
7 -4 5 9.59 1.85
7 -4 5 8.92 2.17
-7 4 -5 6.12 1.61
-7 4 -5 12.2 2.44
7 -4 6 3.8 1.82
7 -4 6 4.07 2.15
-7 4 -6 3.01 1.66
-7 4 -6 5.22 1.68
7 -4 7 3.5 1.75
7 -4 7 1.08 1.51
-7 4 -7 0.58 1.78
-7 3 11 1.98 2.69
-7 3 11 2.76 2.72
-7 3 10 6.7 1.69
-7 3 10 9.05 1.7
-7 3 9 7.14 2.51
-7 3 9 10.51 2.48
-7 3 8 26.54 2.71
-7 3 8 21.89 2.68
-7 3 7 43.19 2.83
-7 3 7 41.1 2.92
-7 3 6 18.93 2.27
-7 3 6 18.22 2.28
-7 3 5 105.7 2.69
-7 3 5 100.82 2.63
-7 3 4 56.65 2.8
-7 3 4 61.26 1.84
7 -3 -3 60.82 1.18
-7 3 3 59.31 2.5
7 -3 -2 19.92 1.88
7 -3 -2 17.63 0.78
-7 3 2 18.89 1.66
-7 3 2 19.76 1.19
7 -3 -1 34.44 2.06
7 -3 -1 31.74 1.18
-7 3 1 33.1 1.74
-7 3 1 32.49 1.36
7 -3 0 63.16 2.51
7 -3 0 58.44 1.37
-7 3 0 59.6 1.52
-7 3 0 58.53 1.99
7 -3 1 92.83 2.92
7 -3 1 88.44 2.51
-7 3 -1 90.67 2.5
-7 3 -1 91.25 2.8
7 -3 2 17.41 1.12
7 -3 2 18.54 1.63
-7 3 -2 16.14 1.37
-7 3 -2 19.17 1.81
7 -3 3 4.83 1.46
7 -3 3 9.32 1.67
-7 3 -3 7.15 1.21
-7 3 -3 7.9 1.85
7 -3 4 11.15 1.65
7 -3 4 12.57 1.95
-7 3 -4 11.42 0.89
-7 3 -4 14.3 2.3
7 -3 5 4.18 1.51
7 -3 5 2.59 1.96
-7 3 -5 1.44 1.33
-7 3 -5 2.6 2.28
7 -3 6 0.56 1.55
7 -3 6 2 1.4
-7 3 -6 1.68 1.49
-7 3 -6 -0.34 2.5
7 -3 7 0.91 1.71
7 -3 7 3.42 2.43
-7 3 -7 2.61 2.35
-7 3 -7 6.66 2.87
-7 2 11 9.61 2.84
-7 2 11 10.18 3.06
-7 2 10 12.76 2.59
-7 2 10 6.66 2.84
-7 2 9 2.85 2.39
-7 2 9 8.83 2.47
-7 2 8 40.66 2.92
-7 2 8 32.87 3.03
-7 2 7 10.14 2.25
-7 2 7 10.06 1.48
-7 2 6 50.21 2.78
-7 2 6 47.53 1.83
-7 2 5 82.7 3.11
-7 2 5 72.89 3.02
-7 2 4 64.49 1.88
-7 2 4 59.74 2.54
7 -2 -3 44.81 0.9
7 -2 -3 46.62 1.02
-7 2 3 50.13 2.12
7 -2 -2 17.12 0.91
7 -2 -2 17.55 0.83
-7 2 2 19.58 1.13
-7 2 2 16.87 1.6
7 -2 -1 42.08 2.02
7 -2 -1 41.01 1.34
-7 2 1 41.66 1.81
-7 2 1 42.29 1.45
7 -2 0 74.29 2.51
-7 2 0 74.8 2.17
-7 2 0 72.91 2.18
7 -2 1 33.04 1.85
7 -2 1 34.75 1.76
-7 2 -1 33.43 1.57
-7 2 -1 34.73 1.87
7 -2 2 31.54 1.73
7 -2 2 31.69 1.95
-7 2 -2 31.84 1.46
-7 2 -2 31 1.4
7 -2 3 31.37 1.79
7 -2 3 28.87 1.46
-7 2 -3 31.79 1.42
-7 2 -3 29.8 1.59
7 -2 4 27.14 1.8
7 -2 4 31.07 2.42
-7 2 -4 28.59 1.46
-7 2 -4 25.7 1.76
7 -2 5 4.77 1.37
7 -2 5 6.89 2.03
-7 2 -5 4.98 1.24
-7 2 -5 6.28 2.32
7 -2 6 2.81 1.82
7 -2 6 4.34 2.23
-7 2 -6 2.71 1.38
-7 2 -6 2.56 1.59
7 -2 7 0.65 1.55
-7 2 -7 1.53 2.69
-7 1 11 9.87 2.84
-7 1 11 8.83 3.16
-7 1 10 11.31 2.64
-7 1 10 10.14 2.92
-7 1 9 18.53 2.72
-7 1 9 21.59 2.85
-7 1 8 73.32 3.55
-7 1 8 70.38 2.56
-7 1 7 20.41 2.25
-7 1 7 18.36 2.35
-7 1 6 28.86 2.27
-7 1 6 24.55 2.37
-7 1 5 20.44 1.34
-7 1 5 20.52 1.36
7 -1 -4 26.03 0.48
-7 1 4 29.14 1.34
-7 1 4 25.21 1.3
7 -1 -3 16.73 0.86
7 -1 -3 16.74 0.66
-7 1 3 19.18 1.13
-7 1 3 19.92 1.68
7 -1 -2 2.04 0.73
7 -1 -2 1.49 0.7
-7 1 2 1.68 1.3
-7 1 2 1.61 0.77
7 -1 -1 71.68 1.9
7 -1 -1 71.48 1.83
-7 1 1 75.5 2.4
-7 1 1 71.38 2.23
7 -1 0 9.37 1.2
-7 1 0 9.42 1.17
7 -1 1 60.31 2.06
7 -1 1 61.51 2.25
-7 1 -1 56.81 1.28
-7 1 -1 63.48 2.31
7 -1 2 0.47 1.12
7 -1 2 0.01 0.94
-7 1 -2 1.86 0.89
-7 1 -2 3.93 1.52
7 -1 3 15.67 1.35
7 -1 3 15.82 2.03
-7 1 -3 14.96 1.1
-7 1 -3 18.32 1.35
7 -1 4 15.1 1.35
7 -1 4 16.24 1.45
-7 1 -4 15.35 1.16
-7 1 -4 17.26 1.55
7 -1 5 5.59 1.19
7 -1 5 4.51 1.4
-7 1 -5 4.82 1.15
-7 1 -5 7.74 1.53
7 -1 6 9.78 2.5
-7 1 -6 9.82 2.71
7 -1 7 2.53 2.77
-7 1 -7 4.22 1.95
-7 0 11 14.68 1.95
-7 0 11 12.9 3.28
-7 0 10 17.15 2.76
-7 0 10 15.24 2.01
-7 0 9 36.1 3
-7 0 9 36.67 3.44
-7 0 8 32.92 1.88
-7 0 8 31.58 3.01
-7 0 7 33.39 2.44
-7 0 7 27.23 2.61
-7 0 6 39.41 2.39
-7 0 6 36.67 2.59
-7 0 5 109.46 2.63
-7 0 5 105.18 3.51
7 0 -4 56.32 1.09
-7 0 4 60.25 2.48
-7 0 4 58.25 2.48
7 0 -3 12.56 0.93
7 0 -3 12.97 0.78
-7 0 3 14.5 1.58
-7 0 3 14.17 1.51
7 0 -2 34.28 1.21
7 0 -2 33.63 1.23
-7 0 2 34.7 1.23
-7 0 2 38.38 1.7
7 0 -1 24.35 1.27
7 0 -1 20.06 1.29
-7 0 1 25.6 1.51
-7 0 1 21.18 1.41
7 0 0 27.62 1.57
7 0 0 25.14 1.54
-7 0 0 24 1.49
-7 0 0 27.81 1.31
7 0 1 6.48 0.98
7 0 1 7.49 1.45
-7 0 -1 6.58 1.1
-7 0 -1 6.21 0.95
7 0 2 0.4 1
7 0 2 -0.63 1.5
-7 0 -2 0.96 0.97
-7 0 -2 1.1 0.77
7 0 3 24.2 2.26
7 0 3 22.5 2.18
-7 0 -3 20.92 1.22
-7 0 -3 19.31 1.03
7 0 4 2.83 1.29
7 0 4 2.19 1.99
-7 0 -4 1.87 0.82
7 0 5 7.4 2.31
7 0 6 1.83 1.65
7 0 6 4.6 2.4
7 0 7 5.71 2.93
7 0 7 4.4 2.87
-7 -1 11 8.55 1.71
-7 -1 11 8.03 3.25
-7 -1 10 16.36 2.66
-7 -1 10 10.48 2
-7 -1 9 28.14 1.85
-7 -1 9 29.59 3.12
-7 -1 8 63.13 3.28
-7 -1 8 63.97 3.61
-7 -1 7 5.54 1.31
-7 -1 7 6.64 1.42
-7 -1 6 62.94 2.79
-7 -1 6 57.85 2.1
-7 -1 5 25.78 1.4
-7 -1 5 27.65 2.17
7 1 -4 71.88 1.34
7 1 -4 67.78 1.47
-7 -1 4 73.12 2.67
-7 -1 4 69.98 1.94
7 1 -3 12.48 0.83
7 1 -3 10.28 0.95
-7 -1 3 12.45 1.48
-7 -1 3 11.55 1.49
7 1 -2 83.62 1.97
7 1 -2 80.14 2.03
-7 -1 2 84.19 2.45
-7 -1 2 81.61 2.41
7 1 -1 71.79 2.06
7 1 -1 71.93 2.14
-7 -1 1 71.95 2.13
-7 -1 1 68.87 2.07
7 1 0 69.62 2.32
7 1 0 67.35 1.73
-7 -1 0 66.08 1.92
-7 -1 0 65.5 1.78
7 1 1 33.87 1.98
7 1 1 31.88 2.03
-7 -1 -1 32.13 1.33
-7 -1 -1 30.23 1.17
7 1 2 21.24 2
7 1 2 22.33 2.13
-7 -1 -2 18.09 1.37
-7 -1 -2 19.82 0.9
7 1 3 5.55 1.99
7 1 3 5.17 2
-7 -1 -3 3.08 0.98
-7 -1 -3 3.89 0.85
7 1 4 8.5 2.39
7 1 4 10.25 2.27
-7 -1 -4 7.95 0.87
-7 -1 -4 9.36 0.72
7 1 5 2.07 2.32
7 1 5 1.03 1.45
7 1 6 8.79 2.8
7 1 6 4.49 1.81
-7 -2 11 4.3 1.71
-7 -2 10 2.65 2.42
-7 -2 9 17.68 2.58
7 2 -8 5.53 0.65
-7 -2 8 9.72 1.42
7 2 -7 10.46 0.82
-7 -2 7 13.71 2.05
-7 -2 7 11.08 1.5
7 2 -6 29.2 1.09
7 2 -6 29.05 1.21
-7 -2 6 32.34 1.7
7 2 -5 78.73 1.78
7 2 -5 77.98 2.04
-7 -2 5 85.91 3.02
-7 -2 5 85.24 2.29
7 2 -4 20.24 0.91
7 2 -4 19.61 1.15
-7 -2 4 22.65 1.79
-7 -2 4 20.68 1.86
7 2 -3 4.08 0.85
7 2 -3 2.92 1.04
-7 -2 3 4.35 1.36
-7 -2 3 3.23 0.86
7 2 -2 42.91 1.53
7 2 -2 41.02 1.73
-7 -2 2 43.97 1.79
-7 -2 2 41.97 1.31
7 2 -1 16.67 1.4
7 2 -1 16.36 1.54
-7 -2 1 16.22 1.29
-7 -2 1 16 1.25
7 2 0 40.05 2.03
7 2 0 43.56 2.16
-7 -2 0 43.78 1.51
-7 -2 0 39.88 1.41
7 2 1 18.94 1.82
7 2 1 19.73 1.29
-7 -2 -1 20.33 1.04
-7 -2 -1 18.71 0.95
7 2 2 11.01 1.96
7 2 2 10.86 1.96
-7 -2 -2 7.7 1.03
-7 -2 -2 9.52 0.66
7 2 3 38.83 2.8
7 2 3 38.15 1.94
7 2 4 8.84 2.3
7 2 4 3.07 2.41
7 2 5 10.44 2.67
7 2 5 8.75 2.63
7 2 6 5.49 1.86
7 2 6 7.78 2.85
7 3 -11 16.69 3.53
-7 -3 11 12.51 1.88
7 3 -10 14.96 2.23
-7 -3 10 17.23 2.84
7 3 -9 22.35 2.02
-7 -3 9 25.69 2.68
7 3 -8 7.07 1.63
7 3 -8 7.18 0.93
-7 -3 8 5.61 2.1
-7 -3 8 4.95 0.9
7 3 -7 7.14 2.14
7 3 -7 4.46 0.82
-7 -3 7 4.18 1.92
-7 -3 7 4.8 0.93
7 3 -6 7.11 1.08
-7 -3 6 5.88 1.85
-7 -3 6 7.46 1.04
7 3 -5 28.73 1.16
7 3 -5 27.84 1.39
-7 -3 5 29.48 1.39
-7 -3 5 33.18 2.29
7 3 -4 14.11 1.02
7 3 -4 12.69 1.27
-7 -3 4 12.23 1.62
-7 -3 4 14.39 1.73
7 3 -3 37.82 1.07
7 3 -3 41.32 1.76
-7 -3 3 39.02 1.32
-7 -3 3 39.06 1.99
7 3 -2 71.02 2.1
7 3 -2 72.72 2.43
-7 -3 2 69.55 2.16
-7 -3 2 67.87 2.23
7 3 -1 28.89 1.7
7 3 -1 30.84 1.96
-7 -3 1 27.36 1.38
-7 -3 1 26.55 1.39
7 3 0 13.62 1.67
7 3 0 14.21 1.24
-7 -3 0 13.59 1.32
-7 -3 0 13.66 1.01
7 3 1 3.12 1.59
7 3 1 0.14 1.8
-7 -3 -1 1.03 0.91
-7 -3 -1 1.76 0.83
7 3 2 3.11 1.82
7 3 2 3.44 1.97
-7 -3 -2 2.69 0.57
-7 -3 -2 3.39 0.51
7 3 3 1.89 1.35
7 3 3 3.83 2.13
7 3 4 7.49 2.38
7 3 4 7.45 2.5
7 3 5 6.76 1.73
7 3 5 7.56 1.78
7 4 -10 24.73 3.52
-7 -4 10 20.67 1.91
7 4 -9 17.8 3.08
7 4 -9 17.17 1.52
-7 -4 9 20.69 2.61
7 4 -8 27.39 3.04
7 4 -8 26.77 1.45
-7 -4 8 28.08 2.62
-7 -4 8 24.65 1.96
7 4 -7 10.79 1.6
7 4 -7 10.19 1.11
-7 -4 7 11.66 2.08
-7 -4 7 10.1 1.32
7 4 -6 49.73 2.97
7 4 -6 46.14 1.53
-7 -4 6 51.85 1.84
-7 -4 6 48.92 2.43
7 4 -5 26.28 2.29
7 4 -5 26.01 1.34
-7 -4 5 29.95 2.04
-7 -4 5 28.75 1.67
7 4 -4 5.36 1.06
-7 -4 4 4.58 1.41
7 4 -3 13.99 1.27
7 4 -3 13.19 1.09
-7 -4 3 13.57 1.43
-7 -4 3 14.31 1.12
7 4 -2 30.16 1.15
7 4 -2 28.09 1.37
-7 -4 2 28.19 1.54
-7 -4 2 29.69 1.7
7 4 -1 13.68 1.07
7 4 -1 16.04 1.93
-7 -4 1 14.6 1.17
-7 -4 1 13.74 1.59
7 4 0 28.14 1.98
7 4 0 27.55 2.28
-7 -4 0 23.29 1.09
-7 -4 0 22.61 1.45
7 4 1 7.19 1.85
7 4 1 7.53 2.04
-7 -4 -1 5.88 0.61
-7 -4 -1 5.08 0.76
7 4 2 7.65 1.35
7 4 2 8.45 2.32
7 4 3 7.95 2.3
7 4 3 10.58 1.64
7 4 4 3.84 1.62
7 4 4 3.94 2.54
7 4 5 8.18 2.8
7 4 5 5.59 2.96
7 5 -10 10.22 3.18
-7 -5 10 9.57 2.66
7 5 -9 7.08 2.94
7 5 -9 7.06 1.53
-7 -5 9 9.18 2.27
-7 -5 9 3.93 2.01
7 5 -8 2.33 2.54
7 5 -8 4.26 1.32
-7 -5 8 2.35 1.3
-7 -5 8 2.88 1.48
7 5 -7 23.97 2.66
7 5 -7 18.39 1.42
-7 -5 7 22.49 2.21
-7 -5 7 18.15 1.81
7 5 -6 32.88 2.67
7 5 -6 27.25 1.54
-7 -5 6 31.62 2.29
-7 -5 6 31.5 1.99
7 5 -5 43.54 2.7
7 5 -5 43.03 1.8
-7 -5 5 45 2.32
-7 -5 5 44.78 2.34
7 5 -4 23.51 2.02
7 5 -4 18.57 1.48
-7 -5 4 21.18 1.75
-7 -5 4 18.9 1.92
7 5 -3 36 1.83
7 5 -3 37.68 2.3
-7 -5 3 32.92 1.19
-7 -5 3 31.91 2.06
7 5 -2 18.58 1.15
7 5 -2 21.72 2.11
-7 -5 2 19.07 1.36
-7 -5 2 18.74 1.61
7 5 -1 4.28 1.58
7 5 -1 3.42 1.92
-7 -5 1 3.73 1.26
-7 -5 1 4.15 1.11
7 5 0 3.12 1.12
7 5 0 5.69 1.35
-7 -5 0 2.52 0.75
-7 -5 0 3.89 0.87
7 5 1 4.79 1.21
7 5 1 3.16 1.45
7 5 2 7.31 2.28
7 5 2 9.51 2.55
7 5 3 8.78 2.55
7 5 3 12.04 2.82
7 5 4 9.74 2.77
7 5 4 9.23 3.03
7 6 -9 5.76 2.96
7 6 -9 5.83 1.71
-7 -6 9 8.02 2.46
-7 -6 9 6.85 1.89
7 6 -8 11.97 2.8
7 6 -8 6.81 1.54
-7 -6 8 9.23 2.2
-7 -6 8 8.65 1.91
7 6 -7 6.86 2.5
7 6 -7 5.45 1.42
-7 -6 7 7.59 2
-7 -6 7 5.98 1.89
7 6 -6 21.2 2.72
7 6 -6 22.25 1.14
-7 -6 6 24.57 2.18
-7 -6 6 25.7 2.27
7 6 -5 8.42 1.4
7 6 -5 8.54 0.97
-7 -6 5 10.08 1.69
-7 -6 5 10.38 1.98
7 6 -4 6.36 1.87
7 6 -4 6.2 1.46
-7 -6 4 6.78 1.52
-7 -6 4 9.18 2.02
7 6 -3 17.64 1.73
-7 -6 3 17.1 1.51
7 6 -2 12.06 1.13
7 6 -2 10.55 1.47
-7 -6 2 11.05 1.24
-7 -6 2 10.94 1.57
7 6 -1 8.81 1.83
7 6 -1 10.53 1.51
-7 -6 1 7.1 1.03
-7 -6 1 9.78 1.6
7 6 0 18.1 2.21
7 6 0 18.58 2.64
7 6 1 5.84 2.11
7 6 1 6.61 2.6
7 6 2 8.61 1.59
7 6 2 12.19 2.92
7 6 3 3.12 2.47
7 6 3 3.92 2.86
7 7 -8 8.03 2.97
7 7 -8 5.46 1.8
-7 -7 8 10.15 2.28
-7 -7 8 8.91 2.2
7 7 -7 11.88 2.88
7 7 -7 14.21 1.22
-7 -7 7 11.68 2.22
-7 -7 7 16.88 2.37
7 7 -6 16.79 2.72
7 7 -6 16.44 1.83
-7 -7 6 17.54 2.04
-7 -7 6 14.84 2.41
7 7 -5 8.32 2.36
7 7 -5 10.14 1.63
-7 -7 5 9.42 1.77
-7 -7 5 10.39 2.32
7 7 -4 14.35 2.11
7 7 -4 8.6 1.74
-7 -7 4 10.97 1.65
-7 -7 4 9.84 2.45
7 7 -3 11.24 1.88
7 7 -3 8.15 1.76
-7 -7 3 9 1.44
-7 -7 3 10.06 2.46
7 7 -2 11.43 1.86
7 7 -2 11.18 2.54
-7 -7 2 9.42 1.26
-7 -7 2 10.02 1.62
7 7 -1 7.29 2.04
7 7 -1 8.22 1.72
7 7 0 4.78 2.21
7 7 0 10.01 1.78
7 7 1 12.58 2.54
7 7 1 13.51 3.11
7 8 -6 4.16 1.79
7 8 -5 5.84 2.32
7 8 -5 1.51 1.75
-7 -8 5 5.71 1.75
-7 -8 5 4.82 2.49
7 8 -4 2.59 2.07
7 8 -4 3.5 1.8
-7 -8 4 1.74 1.51
-7 -8 4 4.39 2.5
7 8 -3 7.62 2.01
7 8 -3 7.3 1.97
-7 -8 3 7.72 1.5
-7 -8 3 9.03 1.8
7 8 -2 4.57 1.98
7 8 -1 15.64 2.4
7 8 -1 14.33 3.1
8 -9 -4 9.36 3.24
-8 9 4 10.74 2.47
8 -9 -3 3.08 2.98
-8 9 3 3.63 1.51
8 -9 -2 8.11 1.94
8 -9 -2 6.81 1.79
-8 9 2 5.81 2.47
-8 9 2 7.73 1.78
8 -9 -1 3.34 2.95
8 -9 -1 5.43 1.75
-8 9 1 4.32 2.3
-8 9 1 2.34 1.87
8 -9 0 3.52 1.73
8 -9 0 2.48 1.8
-8 9 0 3.85 1.42
-8 9 0 2.39 1.87
8 -9 1 10.67 2.97
8 -9 1 9.56 2
-8 9 -1 8.17 1.61
-8 9 -1 10.89 2.2
-8 8 6 7.63 2.9
-8 8 6 2.42 1.56
8 -8 -5 23.28 3.41
-8 8 5 22.04 1.83
8 -8 -4 6.42 2.84
-8 8 4 1.14 2.24
8 -8 -3 13.79 3
8 -8 -3 9.72 1.44
-8 8 3 9.35 1.48
-8 8 3 7.88 1.37
8 -8 -2 7.92 2.61
8 -8 -2 4.2 1.46
-8 8 2 3.31 2.13
-8 8 2 2.21 1.5
8 -8 -1 2.45 1.69
8 -8 -1 3.51 1.49
-8 8 1 3.63 2.07
-8 8 1 3.25 1.62
8 -8 0 6.2 2.55
8 -8 0 4.42 1.6
-8 8 0 4.97 2.13
-8 8 0 5.84 1.94
8 -8 1 0.11 1.54
8 -8 1 1.72 1.63
-8 8 -1 2.72 1.97
-8 8 -1 1.67 1.91
8 -8 2 2.64 2.57
8 -8 2 5.89 1.83
-8 8 -2 3.83 1.33
-8 8 -2 7.95 2.27
8 -8 3 8.01 2.64
8 -8 3 6.49 1.27
-8 8 -3 3.97 2.15
-8 8 -3 3.85 2.47
-8 7 8 12.86 2.75
-8 7 7 0.31 2.69
-8 7 7 3.93 2.39
-8 7 6 2.67 1.81
-8 7 6 7.87 2.34
8 -7 -5 16.22 1.98
-8 7 5 20.53 2.6
8 -7 -4 10.45 1.83
-8 7 4 15.66 2.33
8 -7 -3 21.79 1.91
8 -7 -3 16.96 1.27
-8 7 3 20.86 1.57
-8 7 3 15.85 1.75
8 -7 -2 6.82 2.37
8 -7 -2 2.69 1.2
-8 7 2 3.26 1.95
-8 7 2 3.32 1.31
8 -7 -1 7.6 2.45
8 -7 -1 6.28 1.37
-8 7 1 6.17 1.97
-8 7 1 7.82 1.6
8 -7 0 0.27 1.48
8 -7 0 4.41 1.35
-8 7 0 1.22 1.19
-8 7 0 3.32 1.1
8 -7 1 10.28 2.41
8 -7 1 9.76 1.63
-8 7 -1 9.32 2.02
-8 7 -1 10.23 2.05
8 -7 2 -0.05 2.26
8 -7 2 1.12 1.6
-8 7 -2 0.91 1.18
-8 7 -2 1.91 1.94
8 -7 3 4.53 2.34
8 -7 3 2.04 1.18
-8 7 -3 4.67 1.91
-8 7 -3 4.44 2.25
8 -7 4 10.37 2.49
8 -7 4 5.81 1.35
-8 7 -4 4.85 2.08
-8 7 -4 4.5 1.66
-8 6 8 25.18 3.26
-8 6 8 18.06 3.05
-8 6 7 9.19 2.77
-8 6 7 10.89 2.55
-8 6 6 16.8 1.82
-8 6 6 14.17 2.59
-8 6 5 2.14 1.56
-8 6 5 1.71 2.13
8 -6 -4 0.67 1.47
-8 6 4 1.03 1.26
8 -6 -3 0.25 1.42
8 -6 -3 0.52 0.81
-8 6 3 -0.69 1.18
-8 6 3 0.83 0.89
8 -6 -2 9.16 2.37
8 -6 -2 8.18 1.44
-8 6 2 6.2 1.24
-8 6 2 6.96 1.21
8 -6 -1 4.44 2.18
8 -6 -1 3.92 1.17
-8 6 1 3.9 1.15
-8 6 1 4.37 1.34
8 -6 0 22.43 1.74
8 -6 0 21.4 1.59
-8 6 0 25.32 2.13
-8 6 0 20.4 1.88
8 -6 1 7.72 2.15
8 -6 1 6.17 1.45
-8 6 -1 6.15 1.15
-8 6 -1 7.38 1.19
8 -6 2 7.59 2.2
8 -6 2 8.39 1.07
-8 6 -2 9.72 1.19
-8 6 -2 10.64 2.07
8 -6 3 1.19 2.15
8 -6 3 3.43 1.75
-8 6 -3 3.05 1.75
-8 6 -3 4.6 2.16
8 -6 4 3.33 2.2
8 -6 4 1.62 1.29
-8 6 -4 1.95 1.78
-8 6 -4 4.03 1.52
-8 5 9 5.6 1.85
-8 5 9 6.24 2.78
-8 5 8 20.63 3.05
-8 5 8 19.63 1.95
-8 5 7 16.43 2.74
-8 5 7 11.04 2.56
-8 5 6 8.38 2.46
-8 5 6 5.92 1.55
-8 5 5 18.21 2.69
-8 5 5 19.03 2.41
8 -5 -4 1.54 0.42
-8 5 4 1.85 1.23
8 -5 -3 7.61 2.19
8 -5 -3 4.58 0.72
-8 5 3 4.61 1.84
-8 5 3 5.58 1.05
8 -5 -2 0.37 2.06
8 -5 -2 1.36 0.84
-8 5 2 2.12 1.07
-8 5 2 -0.71 1
8 -5 -1 3.37 1.32
8 -5 -1 4.27 1.06
-8 5 1 4.36 1.63
-8 5 1 2.52 1.29
8 -5 0 8.93 2
8 -5 0 5.7 1.22
-8 5 0 4.04 1.08
-8 5 0 7.25 1.53
8 -5 1 8.29 2.13
8 -5 1 10.61 0.97
-8 5 -1 9.33 1.67
-8 5 -1 9.28 1.82
8 -5 2 2.36 1.89
8 -5 2 4.2 1.55
-8 5 -2 3.11 1
-8 5 -2 4.73 1.86
8 -5 3 0.33 1.88
8 -5 3 2.47 1.61
-8 5 -3 0.55 0.96
-8 5 -3 1.08 2.05
8 -5 4 2.9 2.06
8 -5 4 2.8 1.3
-8 5 -4 6.21 1.71
-8 5 -4 7.36 2.38
8 -5 5 1.85 1.95
8 -5 5 1.39 2.1
-8 5 -5 1.28 1.78
-8 5 -5 2.86 2.59
-8 4 10 8.88 3.06
-8 4 10 7.58 3.06
-8 4 9 13.93 2.93
-8 4 9 11.42 1.86
-8 4 8 17.84 1.92
-8 4 8 18.6 2.92
-8 4 7 2.19 1.51
-8 4 7 1.61 2.31
-8 4 6 7.35 1.53
-8 4 6 6.3 2.23
-8 4 5 1.88 1.34
-8 4 5 -0.34 1.26
-8 4 4 7.21 1.42
-8 4 4 10.57 1.95
8 -4 -3 23.77 1.63
-8 4 3 21.85 2.09
-8 4 3 19.52 0.85
8 -4 -2 26.93 2.36
8 -4 -2 20.02 1.04
-8 4 2 19.61 1.32
-8 4 2 18.99 1.17
8 -4 -1 46.75 2.81
-8 4 1 44.15 2.33
-8 4 1 45.65 1.89
8 -4 0 4.46 1.25
8 -4 0 4.6 1.18
-8 4 0 7.01 1.55
-8 4 0 7.08 1.46
8 -4 1 11.85 1.97
8 -4 1 9.44 0.96
-8 4 -1 8.77 1.6
-8 4 -1 9.18 1.13
8 -4 2 2.62 1.77
8 -4 2 0.55 1.47
-8 4 -2 0.32 0.88
-8 4 -2 2.53 1.78
8 -4 3 8.6 1.28
8 -4 3 9.85 1.86
-8 4 -3 8.81 1.45
8 -4 4 2.5 1.82
8 -4 4 0.54 1.2
-8 4 -4 0.97 1.47
-8 4 -4 2.67 2.24
8 -4 5 2.09 1.81
8 -4 5 1.83 1.39
-8 4 -5 2.79 1.07
-8 4 -5 3.89 1.65
-8 3 10 -0.72 2.82
-8 3 10 7.82 2.85
-8 3 9 6.13 2.78
-8 3 9 8.78 2.7
-8 3 8 17.42 2.81
-8 3 8 16.77 2.85
-8 3 7 4.2 2.17
-8 3 7 0.39 1.44
-8 3 6 4.35 2.14
-8 3 6 3.67 2.18
-8 3 5 9.16 2.22
-8 3 5 12.07 2.09
-8 3 4 31.54 1.7
-8 3 4 31.19 2.33
8 -3 -3 12.56 0.87
-8 3 3 13.19 1.38
-8 3 3 11.68 1.86
8 -3 -2 39.8 1.25
-8 3 2 37.76 1.54
8 -3 -1 24.13 2.15
8 -3 -1 20.83 1.24
-8 3 1 19.88 1.23
-8 3 1 22.92 1.43
8 -3 0 25.07 2.15
8 -3 0 21.23 1.54
-8 3 0 21.59 1.17
-8 3 0 23.97 1.7
8 -3 1 21.4 2.09
8 -3 1 17.58 1.1
-8 3 -1 19.47 1.63
-8 3 -1 21.04 1.9
8 -3 2 7.12 1.72
8 -3 2 7.51 1.61
-8 3 -2 6.45 1.35
-8 3 -2 3.6 1.84
8 -3 3 7.11 1.79
8 -3 3 4.96 1.22
-8 3 -3 7.32 1.39
-8 3 -3 6.13 2.14
8 -3 4 6.2 1.82
8 -3 4 5.39 1.34
-8 3 -4 7.68 1.43
-8 3 -4 4.09 1.53
8 -3 5 3.29 1.79
8 -3 5 0.34 2.26
-8 3 -5 3.97 1.51
-8 3 -5 7.08 2.54
-8 2 10 3.53 2.73
-8 2 10 2.28 1.9
-8 2 9 14.18 2.87
-8 2 9 11.34 2.9
-8 2 8 0.14 2.42
-8 2 8 3.02 1.53
-8 2 7 3.17 2.25
-8 2 7 1.41 1.38
-8 2 6 11.74 1.49
-8 2 6 10.05 1.5
-8 2 5 18.34 1.57
-8 2 5 20.16 2.28
-8 2 4 14.88 2.17
-8 2 4 14.81 2.02
8 -2 -3 13.08 0.96
8 -2 -3 15.01 0.92
-8 2 3 16.58 2
-8 2 3 17.16 1.85
8 -2 -2 20.1 1.46
8 -2 -2 19.41 1.05
-8 2 2 20.76 2.03
-8 2 2 20.73 1.23
8 -2 -1 14.82 1.34
8 -2 -1 13.39 1.17
-8 2 1 14.69 1.24
-8 2 1 15.38 1.61
8 -2 0 15.36 1.74
8 -2 0 10.72 1.35
-8 2 0 10.74 1.44
-8 2 0 9.02 1.47
8 -2 1 5.58 1.61
8 -2 1 7.42 0.98
-8 2 -1 7.84 1.3
-8 2 -1 8.12 1.69
8 -2 2 10.96 1.7
8 -2 2 10.3 1.71
-8 2 -2 9.61 1.29
-8 2 -2 8.34 1.25
8 -2 3 23.49 1.92
8 -2 3 22.68 2.21
-8 2 -3 20.93 1.52
-8 2 -3 22.06 2.49
8 -2 4 3.64 1.6
8 -2 4 4.71 1.36
-8 2 -4 4.96 1.28
-8 2 -4 7.25 2.3
8 -2 5 7.9 1.65
8 -2 5 8.4 2.34
-8 2 -5 5.28 1.43
-8 2 -5 8.35 2.63
-8 1 10 9.35 1.86
-8 1 10 6.52 1.93
-8 1 9 9.85 2.74
-8 1 9 6.11 2.86
-8 1 8 17.44 2.66
-8 1 8 14.45 1.82
-8 1 7 11.2 1.54
-8 1 7 18.26 2.55
-8 1 6 27.46 2.59
-8 1 6 32.98 2.66
-8 1 5 37.74 2.6
-8 1 5 32.26 2.52
-8 1 4 38.32 1.62
-8 1 4 35.19 1.6
8 -1 -3 1.85 0.88
8 -1 -3 1.35 0.68
-8 1 3 1.81 1.63
-8 1 3 1.48 1.56
8 -1 -2 29.06 1.27
8 -1 -2 28.97 1.62
-8 1 2 30.05 2.13
-8 1 2 32.83 1.95
8 -1 -1 -0.19 1.1
8 -1 -1 0.38 1.06
-8 1 1 2.84 1.42
-8 1 1 1.38 1.26
8 -1 0 6.19 1.52
8 -1 0 7.73 1.36
-8 1 0 9 1.5
-8 1 0 6.28 1.32
8 -1 1 7.3 1.71
8 -1 1 7.91 1.61
-8 1 -1 11.11 1.52
-8 1 -1 9.68 1.21
8 -1 2 4.38 1.19
8 -1 2 5.1 1.7
-8 1 -2 3.48 1.08
8 -1 3 10.81 2.02
-8 1 -3 8.77 1.17
8 -1 4 2.55 2.17
-8 1 -4 2.73 1.11
8 -1 5 1.86 1.47
-8 0 10 7.82 1.88
-8 0 10 8.02 2.02
-8 0 9 19.19 2.92
-8 0 9 16.14 3.16
-8 0 8 4.89 2.44
-8 0 8 7.23 1.64
-8 0 7 5.6 2.27
-8 0 7 9.55 2.37
-8 0 6 40 2.77
-8 0 6 42.86 2.85
-8 0 5 52.17 2.85
-8 0 5 53.14 2.88
8 0 -4 18.82 0.82
-8 0 4 21.9 2.08
-8 0 4 18.59 1.33
8 0 -3 36.72 1.22
8 0 -3 37.97 1.6
-8 0 3 39.13 2.29
-8 0 3 40.27 2.19
8 0 -2 36.3 1.44
8 0 -2 35.33 1.52
-8 0 2 43.91 2.13
-8 0 2 37.26 1.99
8 0 -1 12.8 1.34
8 0 -1 12.94 1.39
-8 0 1 14.66 1.6
-8 0 1 12.23 1.46
8 0 0 32.68 1.91
8 0 0 29.53 1.86
-8 0 0 27.8 1.8
-8 0 0 29.16 1.58
8 0 1 1.3 0.99
8 0 1 1.8 1.56
-8 0 -1 0.6 1.22
-8 0 -1 1.55 1
8 0 2 16.79 1.49
8 0 2 17.32 1.42
-8 0 -2 17.32 1.42
-8 0 -2 17.46 1.49
8 0 3 2.84 2.1
8 0 3 4.87 1.97
-8 0 -3 1.18 1.12
-8 0 -3 1.64 1.21
8 0 4 6.57 2.49
8 0 4 5.54 2.32
8 0 5 4.47 2.71
8 0 5 5.09 2.44
-8 -1 10 12.7 1.91
-8 -1 10 7.09 3.31
-8 -1 9 14.09 2.76
-8 -1 9 19.41 3.1
-8 -1 8 11.6 1.68
-8 -1 8 10.22 1.82
-8 -1 7 30.23 2.76
-8 -1 7 31.44 2.87
-8 -1 6 12.61 2.21
-8 -1 6 12.59 2.26
-8 -1 5 27.09 2.31
-8 -1 5 24.53 2.33
8 1 -4 1.99 0.67
8 1 -4 1.78 0.81
-8 -1 4 4.14 1.67
-8 -1 4 1.19 1.07
8 1 -3 15.8 1.06
8 1 -3 15.41 1.58
-8 -1 3 17.33 1.78
-8 -1 3 14.71 1.78
8 1 -2 23.33 1.81
8 1 -2 23.13 1.55
-8 -1 2 25.2 1.82
-8 -1 2 24.31 1.78
8 1 -1 15.29 1.48
8 1 -1 15.76 1.66
-8 -1 1 17.96 1.57
-8 -1 1 17.18 0.99
8 1 0 16.13 1.19
8 1 0 20.29 1.88
-8 -1 0 18.22 1.47
-8 -1 0 17.3 1.32
8 1 1 33.68 2.32
8 1 1 32.97 2.37
-8 -1 -1 30.67 1.58
8 1 2 9.96 1.34
8 1 2 7.56 2.01
-8 -1 -2 6.21 1.1
-8 -1 -2 7.3 0.92
8 1 3 16.17 1.64
8 1 3 15.09 2.44
8 1 4 5.51 2.4
8 1 4 1.92 2.36
8 1 5 5.35 2.77
8 1 5 6.72 2.75
-8 -2 10 3.92 1.75
-8 -2 10 3.67 3.09
-8 -2 9 5.24 1.62
-8 -2 9 2.65 2.79
-8 -2 8 11.5 2.47
-8 -2 8 12.31 2.74
-8 -2 7 6.36 2.19
-8 -2 7 5.34 1.51
-8 -2 6 53.86 3.11
-8 -2 6 54.68 2.2
8 2 -5 16.89 0.92
8 2 -5 14.81 1.4
-8 -2 5 20.9 2.13
-8 -2 5 18.81 2.26
8 2 -4 6.15 0.91
8 2 -4 7.51 1.11
-8 -2 4 7.17 1.72
-8 -2 4 7.36 1.16
8 2 -3 17.76 1.27
8 2 -3 21.39 1.49
-8 -2 3 18.89 1.24
-8 -2 3 20.47 1.86
8 2 -2 6.24 1.23
8 2 -2 4.9 1.39
-8 -2 2 4.88 1.45
-8 -2 2 5.35 1.41
8 2 -1 5.01 1.4
8 2 -1 5.79 1.54
-8 -2 1 5.02 1.32
-8 -2 1 7.08 1.24
8 2 0 9.66 1.1
8 2 0 11.73 1.83
-8 -2 0 9.91 1.28
-8 -2 0 11.52 1.17
8 2 1 3.35 1.16
8 2 1 1.71 1.9
-8 -2 -1 3.83 1.35
-8 -2 -1 3.44 0.88
8 2 2 19.04 2.29
8 2 2 15.59 2.45
8 2 3 10.74 2.32
8 2 3 7.92 1.58
8 2 4 7.48 1.7
8 2 4 5.88 1.65
-8 -3 10 14.32 2.93
-8 -3 10 10.35 3.4
-8 -3 9 11.67 2.67
-8 -3 9 11.04 3.08
-8 -3 8 4.24 2.3
-8 -3 8 5.48 2.55
-8 -3 7 19.38 2.42
-8 -3 7 17.86 2.67
8 3 -6 6.92 0.9
8 3 -6 7.15 1.46
-8 -3 6 11.79 2.02
-8 -3 6 6.35 2.25
8 3 -5 6 0.99
8 3 -5 5.92 1.25
-8 -3 5 8.47 1.19
-8 -3 5 5.24 2.09
8 3 -4 8.35 1.09
8 3 -4 10.09 1.39
-8 -3 4 6.5 1.7
-8 -3 4 8.45 1.87
8 3 -3 16.92 1.41
8 3 -3 19.5 1.68
-8 -3 3 19.39 1.73
-8 -3 3 18.25 1.82
8 3 -2 29.13 1.2
8 3 -2 24.47 2
-8 -3 2 26.84 1.75
-8 -3 2 25.29 1.76
8 3 -1 9.81 1.01
8 3 -1 8.01 1.81
-8 -3 1 6.53 1.28
-8 -3 1 7.97 1.3
8 3 0 16.4 2.23
-8 -3 0 17.23 1.26
-8 -3 0 16.33 1.19
8 3 1 3.95 1.93
8 3 1 6.98 2.06
-8 -3 -1 5.39 1.15
-8 -3 -1 4.17 0.78
8 3 2 6.78 2.22
8 3 2 10.24 2.37
8 3 3 5.27 2.29
8 3 3 2.1 1.6
8 3 4 8.88 2.76
8 3 4 8.49 2.94
-8 -4 9 9.76 2.6
-8 -4 8 12 1.68
8 4 -7 11.16 1.21
8 4 -7 11.32 1.42
-8 -4 7 16.58 2.26
-8 -4 7 10.67 1.71
8 4 -6 23.67 1.34
-8 -4 6 26.88 2.36
-8 -4 6 31.14 2.73
8 4 -5 8.78 1.2
8 4 -5 6.51 1.49
-8 -4 5 7.07 1.83
-8 -4 5 8.82 1.37
8 4 -4 5.11 1.2
8 4 -4 3.67 1.54
-8 -4 4 5.01 1.61
-8 -4 4 4.68 1.85
8 4 -3 14.49 1.5
8 4 -3 16.57 1.92
-8 -4 3 17.92 1.66
-8 -4 3 15.68 1.83
8 4 -2 4.55 1.46
8 4 -2 4 1.82
-8 -4 2 4.92 1.32
-8 -4 2 5.05 1.44
8 4 -1 19.96 1.93
8 4 -1 17.63 2.28
-8 -4 1 17.23 1.39
-8 -4 1 15.56 1.43
8 4 0 10.45 1.29
8 4 0 12.44 2.26
-8 -4 0 9.28 1.04
-8 -4 0 9.27 1.07
8 4 1 9.87 2.18
8 4 1 9.88 2.46
8 4 2 2.86 1.45
8 4 2 2.4 2.39
8 4 3 4.44 2.5
8 4 3 5.15 2.71
8 5 -8 3.12 2.91
-8 -5 8 8.97 2.27
8 5 -7 8.76 1.77
8 5 -7 9.7 1.38
-8 -5 7 13.34 2.24
-8 -5 7 8.82 1.75
8 5 -6 7.43 1.34
-8 -5 6 8.35 1.27
8 5 -5 8.03 1.36
8 5 -5 5.53 1.15
-8 -5 5 6.43 1.16
-8 -5 5 8.44 2.16
8 5 -4 14.27 1.56
8 5 -4 14.22 2.04
-8 -5 4 15.38 1.82
-8 -5 4 16.67 2.17
8 5 -3 12.41 1.66
8 5 -3 16.1 2.12
-8 -5 3 15.19 1.6
-8 -5 3 14.73 1.92
8 5 -2 14.19 1.82
8 5 -2 14.79 2.3
-8 -5 2 15.4 1.47
-8 -5 2 13.12 1.65
8 5 -1 8.58 1.83
8 5 -1 7.89 2.29
-8 -5 1 7.35 1.18
-8 -5 1 7.01 1.3
8 5 0 6.65 2.05
8 5 0 7.16 1.61
8 5 1 5.51 2.13
8 5 1 2.4 2.56
8 5 2 0.63 2.34
8 5 2 6.83 2.66
8 6 -7 10.98 1.82
8 6 -7 6.37 1.57
-8 -6 7 8.08 2.22
-8 -6 7 10.2 2.09
8 6 -6 6.4 2.52
8 6 -6 6.86 1.51
-8 -6 6 5.51 2
-8 -6 6 6.03 2.04
8 6 -5 10.6 1.67
-8 -6 5 12.51 1.95
8 6 -4 8.02 1.64
8 6 -4 6.8 2.22
-8 -6 4 9 1.69
-8 -6 4 6.3 2.11
8 6 -3 14.08 1.85
8 6 -3 14.18 2.44
-8 -6 3 12.84 1.62
-8 -6 3 14.85 1.99
8 6 -2 8.32 1.2
8 6 -2 11.87 2.49
-8 -6 2 7.82 1.36
-8 -6 2 8.77 2.08
8 6 -1 9.24 2.07
8 6 -1 10.83 2.63
8 6 0 6.13 2.19
8 6 0 5.41 2.66
8 7 -4 6.74 1.22
8 7 -4 8.99 2.58
-8 -7 4 5.72 1.74
-8 -7 4 8.87 2.24
8 7 -3 8.85 1.98
8 7 -3 11.46 1.74
-8 -7 3 8.8 1.55
-8 -7 3 9.44 2.05
8 7 -2 6.79 2.7
9 -8 -4 4.09 3.16
-9 8 4 3.19 2.5
9 -8 -3 8.03 2.04
-9 8 3 7.53 2.5
9 -8 -2 1.46 2.97
-9 8 2 3.37 1.49
9 -8 -1 1.27 1.88
9 -8 -1 2.8 1.68
-9 8 1 4.29 1.51
-9 8 1 3.09 1.85
-9 7 6 2.34 1.89
-9 7 6 0.77 2.56
-9 7 5 12.61 3.18
-9 7 5 9.69 2.62
9 -7 -4 13.92 3.19
-9 7 4 11.99 1.69
9 -7 -3 3.42 2.88
-9 7 3 6.54 2.31
9 -7 -2 10.56 3.02
-9 7 2 11.13 2.33
9 -7 -1 5.43 2.77
9 -7 -1 5.07 1.5
-9 7 1 5.6 2.14
-9 7 1 4.23 1.73
9 -7 0 5.89 2.67
9 -7 0 1.71 1.57
-9 7 0 7.04 2.1
-9 7 0 4.22 1.96
9 -7 1 7.22 2.71
9 -7 1 5.1 1.75
-9 7 -1 3.7 2.17
-9 7 -1 6.84 2.11
-9 6 7 0.78 1.89
-9 6 7 2.93 1.71
-9 6 6 14.64 2.1
-9 6 6 13.49 1.81
-9 6 5 6.95 2.89
-9 6 5 4.79 2.42
-9 6 4 2.54 1.42
9 -6 -3 10.46 1.8
-9 6 3 8.31 2.26
9 -6 -2 4.53 2.47
9 -6 -2 0.6 1.15
-9 6 2 0.65 1.94
-9 6 2 1.25 1.63
9 -6 -1 11.27 2.74
9 -6 -1 8.6 1.41
-9 6 1 10.34 2.15
-9 6 1 9.85 1.72
9 -6 0 1.88 2.32
9 -6 0 1.05 1.35
-9 6 0 1.09 1.18
-9 6 0 0.64 1.74
9 -6 1 3.03 2.33
9 -6 1 1.35 1.56
-9 6 -1 1.1 1.85
-9 6 -1 4.69 2.02
9 -6 2 3.85 2.34
9 -6 2 -1.03 1.69
-9 6 -2 0.91 1.83
-9 6 -2 -0.31 2.09
-9 5 8 6.98 2.95
-9 5 8 5.69 1.85
-9 5 7 7.45 3.06
-9 5 7 10.85 1.88
-9 5 6 17.46 3.02
-9 5 6 14.61 1.87
-9 5 5 25.01 3.18
-9 5 5 24.66 2.84
-9 5 4 27.2 2.96
-9 5 4 20.98 1.73
-9 5 3 1.57 1.94
9 -5 -2 12.95 2.54
9 -5 -2 11.53 1.5
-9 5 2 10.02 1.35
-9 5 2 9.41 1.68
9 -5 -1 1.95 1.41
9 -5 -1 0.66 1.13
-9 5 1 2.45 1.77
-9 5 1 0.88 1.4
9 -5 0 4.97 2.34
9 -5 0 3.61 1.35
-9 5 0 3.85 1.82
-9 5 0 6.38 1.78
9 -5 1 3.85 2.24
9 -5 1 1.58 1.49
-9 5 -1 1.35 1.72
-9 5 -1 2.92 1.91
9 -5 2 4.35 2.19
9 -5 2 1.56 1.74
-9 5 -2 2.76 1.72
-9 5 -2 0.52 2.09
9 -5 3 1.71 2.26
9 -5 3 1.75 1.22
-9 5 -3 0.42 1.78
-9 5 -3 5.13 2.38
-9 4 8 8.33 3.1
-9 4 8 11.45 1.92
-9 4 7 5.03 2.72
-9 4 7 2.49 2.55
-9 4 6 31.56 2.18
-9 4 6 31.46 2.05
-9 4 5 7.85 1.66
-9 4 5 7.15 2.37
-9 4 4 8.72 2.44
-9 4 4 7.83 1.4
9 -4 -3 3.14 0.75
-9 4 3 7.38 2.28
-9 4 3 4.15 1.24
9 -4 -2 8.15 1.05
-9 4 2 10.97 1.98
9 -4 -1 6.23 2.26
9 -4 -1 6.37 1.19
-9 4 1 7.48 1.78
-9 4 1 7.09 1.41
9 -4 0 5.48 2.19
9 -4 0 5.34 1.39
-9 4 0 6.82 1.74
-9 4 0 9.5 1.69
9 -4 1 1.37 2
9 -4 1 1.33 1.48
-9 4 -1 1.36 1.56
-9 4 -1 -0.58 1.83
9 -4 2 7.28 2.16
9 -4 2 7.11 1.82
-9 4 -2 3.99 1.65
-9 4 -2 4.78 2.12
9 -4 3 2.28 2.07
9 -4 3 4.61 2.01
-9 4 -3 3.75 1.68
-9 4 -3 5.64 2.38
-9 3 9 7.13 2.05
-9 3 9 7.96 2.03
-9 3 8 2.27 1.76
-9 3 8 6.45 2.79
-9 3 7 16.13 2.88
-9 3 7 9.94 2.79
-9 3 6 7.11 2.4
-9 3 6 1.92 1.5
-9 3 5 7.42 1.64
-9 3 5 9.57 2.29
-9 3 4 4.07 2.13
-9 3 4 0.53 1.21
9 -3 -3 1.64 0.72
9 -3 -3 1.65 0.9
-9 3 3 1.22 2.06
-9 3 3 3 1.78
9 -3 -2 10.51 1.54
9 -3 -2 8.24 1.05
-9 3 2 11.73 1.48
-9 3 2 11.24 1.86
9 -3 -1 2.74 1.36
9 -3 -1 4.99 1.17
-9 3 1 6.48 1.65
9 -3 0 17.31 2.2
9 -3 0 11.31 1.56
-9 3 0 13.44 1.73
-9 3 0 11.1 1.81
9 -3 1 9.23 2.07
9 -3 1 7.24 1.68
-9 3 -1 8.56 1.61
-9 3 -1 5.86 1.96
9 -3 2 3.46 2.02
9 -3 2 2.44 1.8
-9 3 -2 3.6 1.51
-9 3 -2 3.59 2.05
9 -3 3 3.79 1.99
9 -3 3 3.36 1.98
-9 3 -3 1.71 0.94
-9 3 -3 2.63 2.28
9 -3 4 -0.59 1.92
9 -3 4 0.58 2.15
-9 3 -4 0.76 1.48
-9 3 -4 2.98 2.48
-9 2 9 6.68 3.19
-9 2 9 13.83 1.95
-9 2 8 9.17 1.82
-9 2 8 8.07 2.81
-9 2 7 6.13 2.61
-9 2 7 5.32 2.56
-9 2 6 10.08 2.55
-9 2 6 9.92 1.56
-9 2 5 2.67 1.39
-9 2 5 0.94 2.03
-9 2 4 0.64 2
-9 2 4 -0.55 1.82
9 -2 -3 3.69 0.79
9 -2 -3 3.96 1.01
-9 2 3 5.84 1.29
-9 2 3 3.43 1.85
9 -2 -2 8.46 1.51
9 -2 -2 9.34 1.09
-9 2 2 8.86 2.06
-9 2 2 6.45 1.17
9 -2 -1 0.6 1.3
9 -2 -1 3.27 1.54
-9 2 1 2.92 1.8
-9 2 1 2.37 1.56
9 -2 0 8.09 1.76
9 -2 0 8.8 1.51
-9 2 0 9.83 1.95
-9 2 0 7.62 1.01
9 -2 1 3.2 1.76
9 -2 1 0.05 1.55
-9 2 -1 1.44 1.73
-9 2 -1 -0.49 1.32
9 -2 2 5.78 1.92
-9 2 -2 7.88 1.43
9 -2 3 2.75 2.01
-9 2 -3 3.42 1.36
9 -2 4 1.13 1.73
9 -2 4 1.71 1.42
-9 2 -4 1.58 1.4
-9 2 -4 4.99 1.63
-9 1 9 8.81 3.07
-9 1 9 11.77 3.11
-9 1 8 6.85 1.77
-9 1 8 4.76 1.76
-9 1 7 9.89 2.56
-9 1 7 6.5 2.62
-9 1 6 17.02 2.58
-9 1 6 12.54 1.65
-9 1 5 12.79 2.28
-9 1 5 6.71 2.24
9 -1 -4 3.7 0.51
9 -1 -4 3.77 0.54
-9 1 4 6.26 1.32
-9 1 4 5.3 1.95
9 -1 -3 16.92 1.08
9 -1 -3 17.2 1.36
-9 1 3 19.14 2.25
-9 1 3 20.49 2.09
9 -1 -2 4.81 1.14
9 -1 -2 4.9 1.12
-9 1 2 4.82 1.9
-9 1 2 7.55 1.68
9 -1 -1 9.99 1.5
9 -1 -1 9.3 1.45
-9 1 1 11.9 1.92
-9 1 1 11.39 1.62
9 -1 0 0.03 1.59
9 -1 0 1.99 1.44
-9 1 0 2.79 1.63
-9 1 0 1.22 0.86
9 -1 1 7.42 1.93
9 -1 1 4.23 1.72
-9 1 -1 3.03 1.66
-9 1 -1 2.65 0.83
9 -1 2 2.58 2.04
9 -1 2 2.29 1.86
-9 1 -2 1.24 1.51
-9 1 -2 1.1 1.22
9 -1 3 5.74 2.36
9 -1 3 0.86 1.32
-9 1 -3 2.33 1.51
-9 1 -3 1.39 1.21
-9 0 9 -0.61 2.73
-9 0 9 6.68 2.98
-9 0 8 0.64 1.59
-9 0 8 1.24 1.67
-9 0 7 5.12 2.49
-9 0 7 5.92 1.6
-9 0 6 9.88 2.32
-9 0 6 7.04 1.51
-9 0 5 10.45 1.49
-9 0 5 9.3 2.17
9 0 -4 4.55 0.72
9 0 -4 3.66 1.03
-9 0 4 5.96 1.98
-9 0 4 8.45 1.9
9 0 -3 22.35 1.23
9 0 -3 23.64 1.34
-9 0 3 27.34 1.45
9 0 -2 15.39 1.4
9 0 -2 15.1 1.46
-9 0 2 17.78 2.05
-9 0 2 18.25 1.86
9 0 -1 4.99 1.48
9 0 -1 9.59 1.52
-9 0 1 6.19 1.7
-9 0 1 7.9 1.49
9 0 0 12.71 1.77
9 0 0 9.85 1.76
-9 0 0 9.77 1.69
-9 0 0 8.1 1.4
9 0 1 0.55 1.83
9 0 1 2.28 1.75
-9 0 -1 0.3 1.42
-9 0 -1 1.35 1.16
9 0 2 5.28 1.38
9 0 2 4.85 2.06
-9 0 -2 2.78 1.43
-9 0 -2 2.88 1.15
9 0 3 9.28 2.49
9 0 3 7.4 2.38
-9 -1 9 0.86 2.67
-9 -1 9 6.6 2.89
-9 -1 8 12.33 2.74
-9 -1 8 8.4 2.82
-9 -1 7 6.93 1.63
-9 -1 7 7.53 2.63
-9 -1 6 17.83 1.75
-9 -1 6 18.42 2.64
-9 -1 5 -0.34 1.29
-9 -1 5 1.61 1.21
9 1 -4 8.53 0.91
9 1 -4 9.48 1.42
-9 -1 4 11.8 1.37
-9 -1 4 13.34 1.96
9 1 -3 5.74 1.12
9 1 -3 8.54 1.26
-9 -1 3 9.84 1.84
-9 -1 3 7.04 1.83
9 1 -2 5.33 1.28
9 1 -2 6.69 1.43
-9 -1 2 7.72 1.71
-9 -1 2 8.17 1.64
9 1 -1 3.15 0.98
9 1 -1 4.64 1.58
-9 -1 1 3.9 1.02
-9 -1 1 4.37 1.44
9 1 0 5.06 1.8
9 1 0 4.79 1.79
-9 -1 0 4.21 1.48
-9 -1 0 4.2 1.29
9 1 1 3.72 1.24
9 1 1 5.58 1.96
-9 -1 -1 2.92 1.75
-9 -1 -1 3.51 1.11
9 1 2 3.9 2.23
9 1 2 7.99 2.23
9 1 3 2.14 2.37
9 1 3 -1.2 1.48
-9 -2 9 5.58 2.8
-9 -2 9 6.38 3.04
-9 -2 8 8.17 2.56
-9 -2 8 2.91 2.77
-9 -2 7 12.42 2.57
-9 -2 7 11.78 2.68
-9 -2 6 10 2.27
-9 -2 6 6.49 2.44
9 2 -5 11.78 1.27
9 2 -5 10.72 1.5
-9 -2 5 15.31 1.5
-9 -2 5 11.91 2.35
9 2 -4 6.1 1.04
9 2 -4 4.01 1.28
-9 -2 4 8.2 1.95
-9 -2 4 7.17 1.92
9 2 -3 12.52 1.39
9 2 -3 11.97 2.03
-9 -2 3 14.35 1.94
-9 -2 3 15.47 1.93
9 2 -2 3.51 1.38
9 2 -2 2.2 1.59
-9 -2 2 3.91 1.61
-9 -2 2 6 1.52
9 2 -1 4.05 1.61
9 2 -1 4.99 1.77
-9 -2 1 4.41 1.51
-9 -2 1 3.23 1.38
9 2 0 1.8 1.83
9 2 0 4.01 1.25
-9 -2 0 2.49 1.78
-9 -2 0 3.56 1.21
9 2 1 5.83 2.01
9 2 1 6.14 2.25
9 2 2 3.46 2.24
9 2 2 5.97 2.33
-9 -3 8 8.27 2.58
-9 -3 8 7.75 2.98
-9 -3 7 8.95 2.5
-9 -3 7 9.38 2.74
-9 -3 6 7.23 2.22
-9 -3 6 6.6 2.47
9 3 -5 2.71 1.03
9 3 -5 4.02 1.33
-9 -3 5 4.66 1.93
-9 -3 5 3.1 2.11
9 3 -4 5.11 1.21
9 3 -4 7.52 1.53
-9 -3 4 5.8 1.21
-9 -3 4 6.67 1.97
9 3 -3 5.84 1.41
9 3 -3 7.18 1.7
-9 -3 3 6.97 1.76
-9 -3 3 8.1 1.8
9 3 -2 3.82 1.51
9 3 -2 2.92 1.82
-9 -3 2 4.92 1.54
-9 -3 2 5.68 1.57
9 3 -1 4.6 1.73
9 3 -1 5.78 1.95
-9 -3 1 4.29 1.41
-9 -3 1 4.31 1.39
9 3 0 2.54 1.8
9 3 0 1.09 2.02
9 3 1 1.3 1.37
9 3 1 6.01 2.29
-9 -4 7 4.2 2.35
-9 -4 7 8.07 1.82
-9 -4 6 11.09 1.47
-9 -4 6 10.61 2.71
9 4 -5 4.19 1.29
9 4 -5 6.43 1.64
-9 -4 5 7.6 1.98
-9 -4 5 4.35 2.24
9 4 -4 2.09 1.31
9 4 -4 3.55 1.72
-9 -4 4 4.06 1.76
-9 -4 4 2.45 2.01
9 4 -3 3.22 1.46
9 4 -3 1.39 1.18
-9 -4 3 3.73 1.02
-9 -4 3 1.49 1.72
9 4 -2 5.43 1.68
9 4 -2 6.05 2.03
-9 -4 2 2.62 1.48
-9 -4 2 3.05 1.56
9 4 -1 2.74 1.82
9 4 -1 0.66 2.1
9 4 0 3.57 1.31
9 4 0 4.59 2.32
9 5 -5 3.34 1.49
9 5 -5 5.44 1.96
-9 -5 5 5.57 2
9 5 -4 5.86 1.55
9 5 -4 4.83 2.01
-9 -5 4 3.63 1.76
-9 -5 4 4.07 2.07
9 5 -3 6.7 1.75
9 5 -3 5.69 1.42
-9 -5 3 4.87 1.63
-9 -5 3 7.1 1.89
9 5 -2 5.98 1.87
9 5 -2 4.34 2.39
-9 -5 2 5.35 1.62
-10 6 3 -0.31 2.17
10 -6 -2 8 3.04
-10 6 2 8.42 2.37
-10 5 5 22.74 3.24
-10 5 5 10.88 2.84
-10 5 4 11.67 2.85
-10 5 4 2.44 2.38
-10 5 3 13.63 3.09
-10 5 3 11.03 1.61
-10 5 2 4.06 1.32
10 -5 -1 3.3 2.68
10 -5 -1 3.36 1.37
-10 5 1 4 2.02
10 -5 0 6.61 2.56
-10 5 0 2.63 2.03
-10 5 0 3.35 1.91
-10 4 6 8.46 2.03
-10 4 6 11.51 2.87
-10 4 5 10.11 2.97
-10 4 5 8.19 1.64
-10 4 4 2.44 2.67
-10 4 4 2.13 2.26
-10 4 3 19.09 3.04
-10 4 3 19.56 2.53
-10 4 2 5.79 1.65
-10 4 2 7.12 2.08
10 -4 -1 3.19 1.62
10 -4 -1 4.31 1.74
-10 4 1 4.45 1.57
-10 4 1 3.44 1.24
10 -4 0 -0.26 1.47
10 -4 0 0.49 1.48
-10 4 0 2.51 1.76
10 -4 1 2.79 2.28
10 -4 1 3.69 1.71
-10 4 -1 -0.18 1.77
-10 4 -1 0.51 1.28
-10 3 7 8.21 3
-10 3 7 3.74 2.76
-10 3 6 11.2 2.95
-10 3 6 8.79 2.71
-10 3 5 9.42 2.75
-10 3 5 5.28 1.54
-10 3 4 8.79 2.72
-10 3 4 7.03 2.28
-10 3 3 4.24 2.46
-10 3 3 5.18 2.09
-10 3 2 0.73 2.28
-10 3 2 1.58 1.86
10 -3 -1 1.02 1.5
10 -3 -1 3.41 1.33
-10 3 1 2.24 1.43
-10 3 1 3.83 1.75
10 -3 0 1.9 1.87
10 -3 0 1.53 1.57
-10 3 0 5.76 1.41
-10 3 0 2.56 1.68
10 -3 1 1.37 2.16
10 -3 1 3.64 1.78
-10 3 -1 4.48 2.29
-10 3 -1 2.61 1.69
-10 2 7 8.48 1.97
-10 2 7 6.92 2.86
-10 2 6 17.11 3.07
-10 2 6 11.54 1.8
-10 2 5 6.47 2.58
-10 2 5 6.31 2.4
-10 2 4 0.55 1.45
-10 2 4 1.14 2.1
-10 2 3 5.24 2.29
-10 2 3 2.19 1.99
10 -2 -2 0.22 1.22
10 -2 -2 1.15 1.08
-10 2 2 -0.09 2.07
-10 2 2 0.32 1.77
10 -2 -1 5.27 1.57
10 -2 -1 4.27 1.39
-10 2 1 2.11 2.12
-10 2 1 1.6 2.12
-10 2 1 2.36 1.72
10 -2 0 3.14 1.83
10 -2 0 2.98 1.64
-10 2 0 0.69 2.1
-10 2 0 4.31 1.63
10 -2 1 5.23 2.12
10 -2 1 2 1.82
-10 2 -1 -0.07 1.3
-10 2 -1 1.58 1.55
-10 1 7 7.29 1.86
-10 1 7 4.4 1.83
-10 1 6 14.44 2.77
-10 1 6 8.81 1.69
-10 1 5 5.87 2.5
-10 1 5 2.78 2.25
-10 1 4 6.9 2.41
-10 1 4 6.51 2.19
-10 1 3 4.04 2.13
-10 1 3 2.82 1.91
10 -1 -2 3.33 1.29
10 -1 -2 2.92 1.26
-10 1 2 5.98 2.05
-10 1 2 6.05 1.79
10 -1 -1 4.15 1.55
10 -1 -1 2.04 1.48
-10 1 1 1.25 2.05
-10 1 1 1.27 1.69
10 -1 0 5.32 1.89
10 -1 0 3.53 1.74
-10 1 0 4.36 1.97
-10 1 0 4.5 1.6
10 -1 1 2.46 2.21
10 -1 1 4.09 2.01
-10 1 -1 3.07 1.9
-10 1 -1 4.24 1.5
-10 0 7 6.93 2.76
-10 0 7 5.31 2.73
-10 0 6 4.21 1.64
-10 0 6 5.87 2.48
-10 0 5 0.59 1.45
-10 0 5 2.38 1.41
-10 0 4 2.14 1.39
-10 0 4 2.46 1.3
-10 0 3 7.68 2.16
-10 0 3 8.05 2
10 0 -2 2.49 1.41
10 0 -2 3.81 1.41
-10 0 2 4.02 2.07
-10 0 2 3.77 1.76
10 0 -1 3.34 1.67
10 0 -1 4.08 1.7
-10 0 1 5.72 1.96
-10 0 1 5.81 1.63
10 0 0 3.96 1.91
10 0 0 4.23 1.84
-10 0 0 2.47 1.79
-10 0 0 2.66 1.45
-10 -1 7 9.81 2.82
-10 -1 7 7.36 2.79
-10 -1 6 3.54 2.41
-10 -1 6 1.37 1.51
-10 -1 5 3.74 2.37
-10 -1 5 7.5 2.28
-10 -1 4 1.29 1.36
-10 -1 4 2.22 1.98
10 1 -3 4.88 1.28
10 1 -3 5.4 1.43
-10 -1 3 8.09 2.17
-10 -1 3 5.31 2.02
10 1 -2 3.68 1.49
10 1 -2 3.31 1.67
-10 -1 2 4.08 1.27
-10 -1 2 8.8 1.78
10 1 -1 8.61 1.8
10 1 -1 6.73 1.89
-10 -1 1 5.06 1.9
-10 -1 1 5.55 1.62
10 1 0 1.66 1.95
10 1 0 1.79 2
-10 -1 0 1.75 1.66
-10 -1 0 2.35 1.36
-10 -2 6 10.05 2.59
-10 -2 6 9.03 2.59
-10 -2 5 2.12 2.21
-10 -2 5 5.57 2.24
-10 -2 4 2.79 2.19
-10 -2 4 5.69 2.13
10 2 -3 0.72 1.39
10 2 -3 3.05 1.59
-10 -2 3 2.87 1.29
-10 -2 3 2.78 1.83
10 2 -2 4.35 1.55
10 2 -2 2.17 1.8
-10 -2 2 4.78 1.89
-10 -2 2 4.37 1.72
10 2 -1 2.69 1.14
10 2 -1 0.97 1.27
-10 -2 1 1.47 1.7
-10 -2 1 2.05 1.49
