#------------------------------------------------------------------------------
#$Date: 2022-09-26 12:34:48 +0300 (Mon, 26 Sep 2022) $
#$Revision: 278183 $
#$URL: file:///home/coder/svn-repositories/cod/cif/8/10/58/8105873.cif $
#------------------------------------------------------------------------------
#
# This file is available in the Crystallography Open Database (COD),
# http://www.crystallography.net/
#
# All data on this site have been placed in the public domain by the
# contributors.
#
data_8105873
loop_
_publ_author_name
'Said, Musa A.'
'Hughes, David L.'
'Almutairi, Saud M.'
'Aouad, Mohamed Reda'
'Messali, Mouslim'
_publ_section_title
;
 Crystal structure of 1-nonylpyridazin-1-ium iodide, C13H23N2I
;
_journal_issue                   5
_journal_name_full
'Zeitschrift f\"ur Kristallographie - New Crystal Structures'
_journal_page_first              857
_journal_page_last               859
_journal_paper_doi               10.1515/ncrs-2019-0024
_journal_volume                  234
_journal_year                    2019
_chemical_formula_moiety         'C13 H23 N2, I'
_chemical_formula_structural     'n-nonyl-pyridazinium iodide'
_chemical_formula_sum            'C13 H23 I N2'
_chemical_formula_weight         334.23
_space_group_crystal_system      triclinic
_space_group_IT_number           2
_space_group_name_Hall           '-P 1'
_space_group_name_H-M_alt        'P -1'
_atom_sites_solution_hydrogens   geom
_atom_sites_solution_primary     dual
_atom_sites_solution_secondary   difmap
_cell_angle_alpha                83.341(4)
_cell_angle_beta                 89.534(4)
_cell_angle_gamma                82.491(4)
_cell_formula_units_Z            2
_cell_length_a                   5.6693(3)
_cell_length_b                   8.9457(4)
_cell_length_c                   16.2919(7)
_cell_measurement_reflns_used    3176
_cell_measurement_temperature    293(2)
_cell_measurement_theta_max      22.3900
_cell_measurement_theta_min      3.2070
_cell_volume                     813.63(7)
_computing_cell_refinement
;
CrysAlisPro, Agilent Technologies, Version 1.171.37.35 
;
_computing_data_collection
;
CrysAlisPro, Agilent Technologies, Version 1.171.37.35 
;
_computing_data_reduction
;
CrysAlisPro, Agilent Technologies, Version 1.171.37.35
;
_computing_molecular_graphics    'ORTEP (Johnson, 1976 and Farrugia, 2012)'
_computing_publication_material
'SHELXL-2014/7 (Sheldrick, 2015b) and WINGX (Farrugia, 2012)'
_computing_structure_refinement  'SHELXL-2014/7 (Sheldrick, 2015b)'
_computing_structure_solution    'SHELXT (Sheldrick, 2015a)'
_diffrn_ambient_temperature      293(1)
_diffrn_detector_area_resol_mean 16.0050
_diffrn_measured_fraction_theta_full 0.998
_diffrn_measured_fraction_theta_max 0.998
_diffrn_measurement_device_type  'Oxford Diffraction Xcalibur 3/Sapphire3 CCD'
_diffrn_measurement_method       'Thin slice \f and \w scans'
_diffrn_radiation_monochromator  graphite
_diffrn_radiation_source         'Enhance (Mo) X-ray Source'
_diffrn_radiation_type           Mo-K\a
_diffrn_radiation_wavelength     0.71073
_diffrn_reflns_av_R_equivalents  0.0587
_diffrn_reflns_av_unetI/netI     0.0526
_diffrn_reflns_Laue_measured_fraction_full 0.998
_diffrn_reflns_Laue_measured_fraction_max 0.998
_diffrn_reflns_limit_h_max       6
_diffrn_reflns_limit_h_min       -6
_diffrn_reflns_limit_k_max       10
_diffrn_reflns_limit_k_min       -10
_diffrn_reflns_limit_l_max       19
_diffrn_reflns_limit_l_min       -19
_diffrn_reflns_number            10743
_diffrn_reflns_point_group_measured_fraction_full 0.998
_diffrn_reflns_point_group_measured_fraction_max 0.998
_diffrn_reflns_theta_full        24.995
_diffrn_reflns_theta_max         24.995
_diffrn_reflns_theta_min         3.611
_exptl_absorpt_coefficient_mu    1.950
_exptl_absorpt_correction_T_max  1.000
_exptl_absorpt_correction_T_min  0.704
_exptl_absorpt_correction_type   multi-scan
_exptl_absorpt_process_details
;
 CrysAlisPro, Agilent Technologies, Version 1.171.37.35 
 Empirical absorption correction using spherical harmonics,
  implemented in SCALE3 ABSPACK scaling algorithm.
;
_exptl_crystal_colour            'pale yellow'
_exptl_crystal_density_diffrn    1.364
_exptl_crystal_description       prism
_exptl_crystal_F_000             336
_exptl_crystal_size_max          0.22
_exptl_crystal_size_mid          0.06
_exptl_crystal_size_min          0.04
_refine_diff_density_max         0.592
_refine_diff_density_min         -0.415
_refine_diff_density_rms         0.074
_refine_ls_extinction_coef       .
_refine_ls_extinction_method     none
_refine_ls_goodness_of_fit_ref   1.048
_refine_ls_hydrogen_treatment    constr
_refine_ls_matrix_type           full
_refine_ls_number_parameters     145
_refine_ls_number_reflns         2866
_refine_ls_number_restraints     0
_refine_ls_restrained_S_all      1.048
_refine_ls_R_factor_all          0.0597
_refine_ls_R_factor_gt           0.0446
_refine_ls_shift/su_max          0.001
_refine_ls_shift/su_mean         0.000
_refine_ls_structure_factor_coef Fsqd
_refine_ls_weighting_details
'w=1/[\s^2^(Fo^2^)+(0.0330P)^2^] where P=(Fo^2^+2Fc^2^)/3'
_refine_ls_weighting_scheme      calc
_refine_ls_wR_factor_gt          0.0823
_refine_ls_wR_factor_ref         0.0873
_reflns_Friedel_coverage         0.000
_reflns_Friedel_fraction_full    .
_reflns_Friedel_fraction_max     .
_reflns_number_gt                2345
_reflns_number_total             2866
_reflns_threshold_expression     'I > 2\s(I)'
_cod_data_source_file            suppl_ncrs-2019-0024_suppl.cif
_cod_data_source_block           musa37
_cod_database_code               8105873
_shelx_space_group_comment
;
The symmetry employed for this shelxl refinement is uniquely defined
by the following loop, which should always be used as a source of
symmetry information in preference to the above space-group names.
They are only intended as comments.
;
_shelx_res_file
;

    shelx.res created by SHELXL-2014/7

TITL shelxt_a.res in P-1
CELL  0.71073   5.6693   8.9457  16.2919   83.341   89.534   82.491
ZERR     2.00   0.0003   0.0004   0.0007    0.004    0.004    0.004
LATT   1
SFAC  C    H    N    I
UNIT  26 46 4 2

MERG   2
OMIT     0.00  50.00
SHEL  5.8 0
MPLA 6 N1 N2 C3 C4 C5 C6 C11 C12 I
FMAP   2
PLAN  -10
EQIV $1 -x, -y+2, -z+1
HTAB C3 I_$1
EQIV $2 -x+1, -y+2, -z+1
HTAB C4 I_$2
EQIV $3 x+1, y, z
HTAB C5 I_$3
EQIV $4 -x+1, -y+1, -z+1
HTAB C6 I_$4
HTAB C11 I_$4
EQIV $5 -x, -y+1, -z+1
HTAB C11 I_$5
HTAB 2.
ACTA
BOND   $H
CONF

L.S.   5
WGHT    0.033000
FVAR       5.93617
I     4    0.113157    0.741469    0.427961    11.00000    0.06658    0.05028 =
         0.08307   -0.00652   -0.00659   -0.01042
N1    3    0.379777    0.665191    0.636799    11.00000    0.05711    0.04787 =
         0.06177   -0.00441   -0.00404   -0.00443
N2    3    0.222931    0.767052    0.667860    11.00000    0.06306    0.04987 =
         0.07483   -0.00020    0.01174    0.00059
C3    1    0.271380    0.906031    0.657994    11.00000    0.08150    0.06224 =
         0.07592    0.00228    0.00260    0.00190
AFIX  43
H3    2    0.165098    0.980253    0.678932    11.00000   -1.20000
AFIX   0
C4    1    0.472631    0.950092    0.618003    11.00000    0.08390    0.06131 =
         0.07235    0.00422   -0.00917   -0.02016
AFIX  43
H4    2    0.500456    1.050937    0.612377    11.00000   -1.20000
AFIX   0
C5    1    0.625217    0.843496    0.587825    11.00000    0.05382    0.09080 =
         0.06658    0.00092   -0.00327   -0.02017
AFIX  43
H5    2    0.763542    0.867585    0.561325    11.00000   -1.20000
AFIX   0
C6    1    0.570996    0.696440    0.597234    11.00000    0.05459    0.07710 =
         0.06344   -0.01435   -0.00100   -0.00273
AFIX  43
H6    2    0.670647    0.620048    0.575401    11.00000   -1.20000
AFIX   0
C11   1    0.312471    0.510684    0.646067    11.00000    0.09074    0.05479 =
         0.07844    0.00402   -0.01448   -0.01673
AFIX  23
H11A  2    0.431431    0.444144    0.619853    11.00000   -1.20000
H11B  2    0.161800    0.511940    0.618042    11.00000   -1.20000
AFIX   0
C12   1    0.290403    0.449026    0.734899    11.00000    0.09105    0.07028 =
         0.09372    0.00425   -0.00793   -0.02283
AFIX  23
H12A  2    0.235954    0.350205    0.737553    11.00000   -1.20000
H12B  2    0.170822    0.515635    0.760806    11.00000   -1.20000
AFIX   0
C13   1    0.518864    0.433700    0.782672    11.00000    0.10123    0.08224 =
         0.09033    0.00295   -0.01351   -0.02037
AFIX  23
H13A  2    0.561612    0.534227    0.786383    11.00000   -1.20000
H13B  2    0.643635    0.379081    0.752475    11.00000   -1.20000
AFIX   0
C14   1    0.507976    0.351356    0.869828    11.00000    0.11326    0.09744 =
         0.08515    0.01458   -0.00857   -0.00852
AFIX  23
H14A  2    0.386574    0.407379    0.900720    11.00000   -1.20000
H14B  2    0.461603    0.251646    0.866405    11.00000   -1.20000
AFIX   0
C15   1    0.739420    0.333735    0.915562    11.00000    0.12192    0.11537 =
         0.08889    0.01538   -0.01768   -0.01678
AFIX  23
H15A  2    0.781064    0.433774    0.921384    11.00000   -1.20000
H15B  2    0.862261    0.283032    0.882920    11.00000   -1.20000
AFIX   0
C16   1    0.737064    0.245315    1.000061    11.00000    0.12604    0.13190 =
         0.07951    0.00553   -0.01474   -0.00238
AFIX  23
H16A  2    0.690243    0.146452    0.994541    11.00000   -1.20000
H16B  2    0.618348    0.297889    1.033459    11.00000   -1.20000
AFIX   0
C17   1    0.976603    0.223408    1.044904    11.00000    0.12701    0.14652 =
         0.08685   -0.00277   -0.02067   -0.02314
AFIX  23
H17A  2    1.096287    0.174737    1.010319    11.00000   -1.20000
H17B  2    1.020146    0.322385    1.052179    11.00000   -1.20000
AFIX   0
C18   1    0.980162    0.130936    1.127309    11.00000    0.12427    0.21264 =
         0.07556    0.00590   -0.01655   -0.00827
AFIX  23
H18A  2    0.936801    0.031912    1.120038    11.00000   -1.20000
H18B  2    0.860401    0.179548    1.161888    11.00000   -1.20000
AFIX   0
C19   1    1.214664    0.109695    1.171176    11.00000    0.13400    0.22662 =
         0.11290   -0.01051   -0.03519   -0.01732
AFIX  33
H19A  2    1.203240    0.049409    1.223433    11.00000   -1.50000
H19B  2    1.333963    0.059102    1.138189    11.00000   -1.50000
H19C  2    1.257464    0.206928    1.180093    11.00000   -1.50000
AFIX   0
HKLF    4

REM  shelxt_a.res in P-1
REM R1 =  0.0446 for    2345 Fo > 4sig(Fo)  and  0.0597 for all    2866 data
REM    145 parameters refined using      0 restraints

END

WGHT      0.0330      0.0000

REM Instructions for potential hydrogen bonds
HTAB C3 I_$1
HTAB C4 I_$2
HTAB C5 I_$3
HTAB C6 I_$4
HTAB C11 I_$4
HTAB C11 I_$5

REM Highest difference peak  0.592,  deepest hole -0.415,  1-sigma level  0.074
Q1    1   0.1578  0.7502  0.3615  11.00000  0.05    0.59
Q2    1   0.2842  0.7043  0.4536  11.00000  0.05    0.56
Q3    1   0.2402  0.7592  0.3811  11.00000  0.05    0.53
Q4    1  -0.0533  0.7527  0.3939  11.00000  0.05    0.53
Q5    1  -0.0885  0.7394  0.4545  11.00000  0.05    0.49
Q6    1   0.0482  0.7411  0.5005  11.00000  0.05    0.36
Q7    1   0.9175  0.2710  1.0992  11.00000  0.05    0.26
Q8    1   0.9137  0.2161  1.0215  11.00000  0.05    0.24
Q9    1   0.1611  0.7885  0.5062  11.00000  0.05    0.23
Q10   1   0.7800  0.0969  1.1441  11.00000  0.05    0.22
;
_shelx_res_checksum              64884
_shelx_hkl_file
;
  -8  -5   0 1340.08 983.175   4
  -8  -5   1 1244.19 1284.92   4
  -8  -5   2-542.210 641.052   4
  -8  -4  -4 957.038 1073.75   4
  -8  -4  -3 198.293 781.464   4
  -8  -4  -2 689.710 652.060   4
  -8  -4  -1 924.677 787.480   4
  -8  -4   0-497.210 992.171   4
  -8  -4   1 1475.78 1242.20   4
  -8  -4   2 1273.82 1222.32   4
  -8  -4   2 579.795 764.389   3
  -8  -4   3-372.099 616.689   4
  -8  -4   3-77.2286 625.370   3
  -8  -4   4 1101.03 792.082   4
  -8  -4   5-58.2601 566.841   4
  -8  -4   6 586.531 1004.03   4
  -8  -3  -6 133.304 907.616   4
  -8  -3  -5-31.3575 693.536   4
  -8  -3  -4 53.7716 687.623   4
  -8  -3  -3 135.975 623.612   4
  -8  -3  -2 239.879 845.725   4
  -8  -3  -1-156.479 971.887   4
  -8  -3   0 322.979 751.251   4
  -8  -3   1 165.730 797.503   4
  -8  -3   2-286.850 661.850   3
  -8  -3   2-1431.76 1197.32   4
  -8  -3   3 873.130 869.464   4
  -8  -3   3 566.719 763.975   3
  -8  -3   4 197.334 623.921   3
  -8  -3   4 1850.29 1253.67   4
  -8  -2  -7 620.406 1015.94   4
  -8  -2  -6 3673.51 1785.95   4
  -8  -2  -5 1627.27 1192.52   4
  -8  -2  -4 998.755 1003.78   4
  -8  -2  -3 386.576 738.975   4
  -8  -2  -2 266.464 843.601   4
  -8  -2  -1 399.068 825.009   4
  -8  -2   0-1850.73 1094.20   4
  -8  -2   1 140.652 728.239   3
  -8  -2   1-504.936 1021.68   4
  -8  -2   2 119.167 859.675   4
  -8  -2   2 756.425 744.315   3
  -8  -2   3 464.686 765.171   3
  -8  -2   4-1127.47 1170.49   3
  -8  -2   5 116.236 661.891   3
  -8  -2   6-1309.06 970.647   3
  -8  -1  -7 361.317 931.575   4
  -8  -1  -6 1313.71 1193.59   4
  -8  -1  -5 1270.41 1190.95   4
  -8  -1  -4 2210.69 1367.77   4
  -8  -1  -3 1400.47 1044.74   4
  -8  -1  -2 411.077 896.010   4
  -8  -1  -1-1532.54 1084.32   4
  -8  -1   0 2233.74 1570.93   3
  -8  -1   1 87.4886 530.692   3
  -8  -1   2-173.060 711.745   3
  -8  -1   3 570.157 778.472   3
  -8  -1   4 605.420 1135.25   3
  -8  -1   5-6.53587 556.558   3
  -8  -1   6-194.115 813.423   3
  -8  -1   7 2109.41 1484.18   3
  -8  -1   8 449.271 1031.00   3
  -8  -1   8-811.138 940.583   2
  -8   0  -7-448.814 793.158   4
  -8   0  -6-160.246 733.091   4
  -8   0  -5 992.997 1020.14   4
  -8   0  -2 1103.22 833.600   3
  -8   0  -1 782.001 875.040   3
  -8   0   0 1029.74 1147.78   3
  -8   0   1-507.352 853.048   3
  -8   0   2 2328.49 1352.90   3
  -8   0   3 404.680 821.509   3
  -8   0   4 24.1758 894.583   3
  -8   0   5-618.928 884.885   3
  -8   0   6 1417.44 1353.95   3
  -8   0   8-487.718 953.343   2
  -7  -7  -7 169.777 842.586   4
  -7  -7  -6 1297.22 1239.66   4
  -7  -7  -5-956.562 1083.39   4
  -7  -7  -4 206.827 920.289   4
  -7  -7  -3 3842.53 1747.63   4
  -7  -7  -2 1530.94 1129.97   4
  -7  -7  -1-230.077 992.948   4
  -7  -7   0 2824.98 1466.71   4
  -7  -7   1 1936.12 1181.55   4
  -7  -7   2 2073.53 1245.27   4
  -7  -7   3 2253.20 1136.01   4
  -7  -7   4-774.502 1099.96   4
  -7  -7   5-1094.81 1094.90   4
  -7  -7   8-330.509 988.417   2
  -7  -6  -9 338.818 624.843   4
  -7  -6  -8 300.461 789.930   4
  -7  -6  -7-396.769 720.053   4
  -7  -6  -6-858.436 978.613   4
  -7  -6  -5 1334.78 980.683   4
  -7  -6  -4 3382.78 1803.42   4
  -7  -6  -3 2897.17 1487.61   4
  -7  -6  -2 2337.49 1432.77   4
  -7  -6  -1-1411.14 1018.05   4
  -7  -6   0-4.93218 929.894   4
  -7  -6   1 684.889 1125.95   4
  -7  -6   2 43.0169 850.337   4
  -7  -6   3 903.331 909.009   4
  -7  -6   4 1710.36 969.503   4
  -7  -6   5-314.571 860.804   4
  -7  -6   6 53.8831 602.673   4
  -7  -6   6-1242.71 1053.56   2
  -7  -6   7-1768.15 1336.68   4
  -7  -6   7-1259.41 1181.23   2
  -7  -6   8-896.004 1168.86   2
  -7  -6   9-920.106 1312.36   2
  -7  -5 -10-299.809 670.561   4
  -7  -5  -9 1301.11 1261.09   4
  -7  -5  -8 225.717 662.087   4
  -7  -5  -7-1.19484 827.261   4
  -7  -5  -6 305.432 702.586   4
  -7  -5  -5 1948.94 1138.81   4
  -7  -5  -4 1343.61 1204.45   4
  -7  -5  -3 1187.16 1240.59   4
  -7  -5  -2 1718.56 1091.91   4
  -7  -5  -1 431.400 1098.10   4
  -7  -5   0 2331.42 1390.73   4
  -7  -5   1 1696.33 1111.63   4
  -7  -5   2 1312.53 1143.15   4
  -7  -5   3 62.9748 646.639   4
  -7  -5   4-737.776 927.436   4
  -7  -5   5-895.704 927.410   2
  -7  -5   5-322.437 725.820   4
  -7  -5   6 568.329 698.847   4
  -7  -5   6-823.186 1056.41   2
  -7  -5   7-694.751 1117.40   2
  -7  -5   7-1994.66 1197.03   4
  -7  -5   8-2061.41 1250.36   2
  -7  -5   9 321.877 940.021   2
  -7  -5  10-464.940 736.443   2
  -7  -4 -11 1196.44 1029.13   4
  -7  -4 -10 1755.15 1265.74   4
  -7  -4  -9 1057.99 948.449   4
  -7  -4  -8 1651.66 1359.91   4
  -7  -4  -7-71.5063 702.375   4
  -7  -4  -6 1998.83 1305.54   4
  -7  -4  -5 907.667 889.589   4
  -7  -4  -4 1452.20 1095.59   4
  -7  -4  -3 695.533 774.084   4
  -7  -4  -2-562.190 739.527   4
  -7  -4  -1 550.821 913.482   4
  -7  -4   0 796.562 880.577   4
  -7  -4   1 823.010 702.911   4
  -7  -4   2 1937.35 1045.02   4
  -7  -4   3 1934.29 1011.10   4
  -7  -4   4 2501.37 1362.35   4
  -7  -4   4 38.1941 450.865   3
  -7  -4   5 1418.12 1204.76   4
  -7  -4   5 1905.14 1162.07   2
  -7  -4   6 437.023 663.032   4
  -7  -4   6 869.275 773.046   2
  -7  -4   7 872.264 773.784   2
  -7  -4   7 329.744 633.749   4
  -7  -4   8 656.224 887.423   2
  -7  -4   8-534.564 628.809   4
  -7  -4   9-2408.49 1262.14   4
  -7  -4   9 1865.12 1058.76   2
  -7  -4  10 1720.28 1417.69   2
  -7  -4  11 655.016 882.388   2
  -7  -3 -12 1513.77 1399.27   4
  -7  -3 -11 1750.58 1359.79   4
  -7  -3 -10 2496.45 1542.64   4
  -7  -3  -9 1146.15 1278.79   4
  -7  -3  -8 2773.27 1407.74   4
  -7  -3  -7 2731.17 1414.47   4
  -7  -3  -6 1409.10 1189.08   4
  -7  -3  -5 2846.68 1575.93   4
  -7  -3  -4-765.598 1076.86   4
  -7  -3  -3-795.517 931.580   4
  -7  -3  -2 720.595 717.679   4
  -7  -3  -1 3528.89 1438.21   4
  -7  -3   0 5772.69 1794.29   4
  -7  -3   1 2553.59 1250.86   4
  -7  -3   2 723.491 1031.93   4
  -7  -3   3 436.449 695.401   4
  -7  -3   3 667.187 730.592   3
  -7  -3   4-50.0795 514.800   2
  -7  -3   4 203.970 499.600   4
  -7  -3   4-113.041 726.379   3
  -7  -3   5-583.732 600.200   3
  -7  -3   5-503.373 639.798   2
  -7  -3   5 378.819 422.404   4
  -7  -3   6 1077.98 970.142   2
  -7  -3   6 774.633 762.070   4
  -7  -3   6 757.589 916.818   3
  -7  -3   7 681.666 524.652   4
  -7  -3   7 523.716 942.525   2
  -7  -3   8 734.350 719.581   4
  -7  -3   8-1128.88 809.604   2
  -7  -3   9-670.623 757.166   2
  -7  -3   9 962.827 955.138   4
  -7  -3  10 1090.17 735.948   2
  -7  -3  11 727.098 816.341   2
  -7  -2 -12 399.197 751.507   4
  -7  -2 -11 3385.48 1633.67   4
  -7  -2 -10 2127.82 1273.70   4
  -7  -2  -9 1828.68 971.005   4
  -7  -2  -8 1568.22 1359.80   4
  -7  -2  -7 2355.11 1332.21   4
  -7  -2  -6 1112.20 1271.45   4
  -7  -2  -5-22.6977 568.552   4
  -7  -2  -4 2944.40 1322.35   4
  -7  -2  -3 1095.80 943.107   4
  -7  -2  -2-1133.66 873.458   4
  -7  -2  -1-28.8696 656.384   4
  -7  -2   0-473.449 869.239   4
  -7  -2   1 836.518 767.818   4
  -7  -2   2 1407.56 1058.52   4
  -7  -2   3 4063.08 1370.99   4
  -7  -2   3 1226.41 975.286   3
  -7  -2   3 2477.18 1063.20   2
  -7  -2   4 734.218 540.248   2
  -7  -2   4 1263.71 992.448   3
  -7  -2   4 2169.69 1070.59   4
  -7  -2   5-206.811 618.406   3
  -7  -2   5 503.386 580.211   2
  -7  -2   5 1512.58 1098.68   4
  -7  -2   6 82.9451 488.242   3
  -7  -2   6-317.436 481.112   2
  -7  -2   6-456.031 489.326   4
  -7  -2   7 831.577 992.956   4
  -7  -2   7-1095.25 861.789   2
  -7  -2   7 87.8544 474.250   3
  -7  -2   8 1934.11 1105.58   3
  -7  -2   8-40.4353 651.563   2
  -7  -2   9 177.994 886.329   2
  -7  -2  10 125.662 1010.97   2
  -7  -2  11-836.740 578.357   2
  -7  -2  12 1428.42 1244.84   2
  -7  -1 -12-90.6316 552.141   4
  -7  -1 -11-596.486 910.559   4
  -7  -1 -10 2367.54 1339.85   4
  -7  -1  -9 1699.93 1050.01   4
  -7  -1  -8 985.086 1084.45   4
  -7  -1  -7 2863.97 1338.17   4
  -7  -1  -6 865.091 893.200   4
  -7  -1  -5 740.459 995.352   4
  -7  -1  -4 670.611 882.330   4
  -7  -1  -3 281.792 491.423   4
  -7  -1  -2 1582.49 1006.75   4
  -7  -1  -1 1390.92 602.303   4
  -7  -1   0 2442.06 1099.30   4
  -7  -1   1 773.456 596.364   4
  -7  -1   2-1775.71 1158.20   4
  -7  -1   2-191.359 629.802   3
  -7  -1   3-179.901 752.525   3
  -7  -1   3 1998.01 1107.73   4
  -7  -1   4 1925.49 1057.19   4
  -7  -1   4 2024.95 1239.18   3
  -7  -1   5 228.287 523.864   3
  -7  -1   6 400.769 836.689   3
  -7  -1   7 1419.98 1113.25   3
  -7  -1   7 298.996 530.491   2
  -7  -1   8-1631.64 1249.76   2
  -7  -1   8 972.074 839.387   3
  -7  -1   9-836.648 1030.12   2
  -7  -1   9 664.742 906.600   3
  -7  -1  10-1476.74 1030.30   2
  -7  -1  10-1053.84 1252.54   3
  -7  -1  11 643.776 623.219   2
  -7  -1  12-669.517 1038.13   2
  -7   0 -12 68.0583 609.387   4
  -7   0 -11 1091.31 937.311   4
  -7   0 -10 634.938 978.660   4
  -7   0  -9 1526.23 1041.69   4
  -7   0  -8-65.8222 661.769   4
  -7   0  -7-254.662 548.487   4
  -7   0  -6 1798.33 993.148   4
  -7   0  -5 797.600 653.243   4
  -7   0  -4 1126.88 852.227   4
  -7   0  -3 1526.61 1101.42   4
  -7   0  -2 1762.42 1057.54   4
  -7   0  -1-280.996 622.432   4
  -7   0   0 107.866 519.715   4
  -7   0   0-638.239 677.629   3
  -7   0   1 302.611 939.701   3
  -7   0   1 195.963 588.504   4
  -7   0   2-462.758 875.724   3
  -7   0   3 1813.86 1218.57   3
  -7   0   4 1268.21 1114.47   3
  -7   0   5-272.049 603.950   3
  -7   0   6 1602.32 1173.85   3
  -7   0   7 827.305 953.315   3
  -7   0   8 355.008 664.490   3
  -7   0   9-2216.22 1182.02   3
  -7   0  10-232.471 691.118   3
  -7   0  11 289.738 680.557   3
  -7   0  12-505.611 818.463   2
  -7   1 -11 1355.06 1086.70   4
  -7   1 -10 1742.43 1207.51   4
  -7   1  -9 104.559 491.115   4
  -7   1  -8 240.297 533.528   4
  -7   1  -7 637.904 756.056   4
  -7   1  -6 322.811 734.589   4
  -7   1  -5 793.227 758.318   4
  -7   1  -4 1039.48 827.224   4
  -7   1  -3 2451.53 1136.21   4
  -7   1  -2 1652.08 919.120   4
  -7   1  -1 1329.21 1017.32   3
  -7   1   0 687.537 622.948   3
  -7   1   1 2003.92 1221.71   3
  -7   1   2 991.175 1085.02   3
  -7   1   3 1735.64 1048.30   3
  -7   1   4 428.931 839.073   3
  -7   1   5 2748.21 1528.75   3
  -7   1   6 1408.63 1289.81   3
  -7   1   7 1052.73 1223.50   3
  -7   1   8 1975.19 1180.92   3
  -7   1   9-342.304 985.095   3
  -7   1  10-1393.74 1058.68   3
  -7   1  11 503.664 899.501   3
  -7   1  12-841.931 1085.19   3
  -7   1  13 1922.03 1323.98   3
  -7   2 -11-511.858 692.690   4
  -7   2 -10 97.4088 720.069   4
  -7   2  -9 145.109 897.557   4
  -7   2  -8 1637.33 1035.28   4
  -7   2  -7-225.888 652.707   4
  -7   2  -6 468.859 645.972   4
  -7   2  -4 270.157 802.756   3
  -7   2  -3 1899.19 1380.40   3
  -7   2  -2 454.583 758.448   3
  -7   2  -1 785.201 632.708   3
  -7   2   0-249.553 761.574   3
  -7   2   1 244.288 616.573   3
  -7   2   2 113.196 640.718   3
  -7   2   3 1087.90 1049.24   3
  -7   2   4 689.573 1028.61   3
  -7   2   5 2037.85 1501.68   3
  -7   2   6 732.032 916.130   3
  -7   2   7 2723.57 1514.78   3
  -7   2   8 382.565 888.599   3
  -7   2   9 839.779 851.503   3
  -7   2  10-2380.94 1364.21   3
  -7   2  11-2966.46 1510.06   3
  -7   2  12-165.339 809.550   3
  -7   3  -7 945.734 849.363   3
  -7   3  -6 797.120 994.451   3
  -7   3  -5-220.167 1018.25   3
  -7   3  -4-444.503 813.431   3
  -7   3  -3-405.625 907.035   3
  -7   3  -2 2166.66 1251.63   3
  -7   3  -1 2470.30 1270.86   3
  -7   3   0 913.269 1137.01   3
  -7   3   1 501.912 1015.42   3
  -7   3   2 588.328 891.424   3
  -7   3   3-227.601 756.479   3
  -7   3   4 930.015 830.340   3
  -7   3   5 903.959 1247.20   3
  -7   3   6 339.247 925.438   3
  -7   3   7 288.463 874.138   3
  -7   3   8 1397.41 1298.06   3
  -7   3   9-1699.31 1223.82   3
  -7   3  10 84.4503 835.661   3
  -7   4  -6 800.211 891.398   3
  -7   4  -5 2032.51 1310.39   3
  -7   4  -4-158.342 612.157   3
  -7   4  -3 1242.90 1093.25   3
  -7   4  -2 693.628 1006.31   3
  -7   4  -1-783.816 797.253   3
  -7   4   0 338.962 891.303   3
  -7   4   1 1976.46 1348.33   3
  -7   4   2 4052.94 1741.39   3
  -7   4   3 2671.47 1521.57   3
  -7   4   4-69.9384 663.308   3
  -7   4   5-1464.82 1259.58   3
  -7   4   6 1462.20 1276.50   3
  -7   4   7-241.729 757.611   3
  -6 -10  -8 515.052 597.083  10
  -6 -10  -7 1821.58 1264.71  10
  -6  -9  -9-1650.26 1384.50   4
  -6  -9  -8-1768.14 1511.35   4
  -6  -9  -7 2415.13 1560.01   4
  -6  -9  -6 1554.17 1059.81   4
  -6  -9  -5 1838.35 1304.20   4
  -6  -9  -4 444.990 1173.84   4
  -6  -9  -3-548.034 973.626   4
  -6  -9  -2 83.9527 939.838   4
  -6  -9  -1 98.3220 799.769   4
  -6  -9   0-263.579 845.264   4
  -6  -9   1 2141.43 1506.85   4
  -6  -9   2 627.065 909.879   4
  -6  -9   5-402.588 1219.70   2
  -6  -9   6 328.789 999.085   2
  -6  -9   7 1611.81 1319.23   2
  -6  -8 -11 414.318 1028.60   4
  -6  -8 -10 372.350 718.232   4
  -6  -8  -9-177.333 929.607   4
  -6  -8  -8 1213.37 1016.10   4
  -6  -8  -7 2924.69 1623.10   4
  -6  -8  -6 2027.11 1498.33   4
  -6  -8  -5 1256.52 1050.22   4
  -6  -8  -4 1634.29 1123.80   4
  -6  -8  -3 2578.99 1448.29   4
  -6  -8  -2 1320.62 1104.98   4
  -6  -8  -1 231.508 721.470   4
  -6  -8   0 2521.39 1286.67   4
  -6  -8   1-45.1043 757.092   4
  -6  -8   2 80.3509 795.558   4
  -6  -8   4 989.439 1241.56   2
  -6  -8   5 4356.83 1770.81   2
  -6  -8   6 2376.29 1276.06   2
  -6  -8   7 5401.67 2024.71   2
  -6  -8   8 1548.52 1127.00   2
  -6  -8   9 649.841 1060.24   2
  -6  -7 -13 1386.57 1138.14   4
  -6  -7 -12 212.364 571.899   4
  -6  -7 -11 1326.67 1036.91   4
  -6  -7 -10-640.223 1063.56   4
  -6  -7  -9 252.433 808.166   4
  -6  -7  -8-209.639 820.311   4
  -6  -7  -7-1475.22 1569.26   4
  -6  -7  -6 1858.40 1211.19   4
  -6  -7  -5 1945.22 1150.93   4
  -6  -7  -4 1887.89 1404.11   4
  -6  -7  -3 1083.33 1118.34   4
  -6  -7  -2 270.107 1081.17   4
  -6  -7  -1 387.430 925.743   4
  -6  -7   0 14.8855 781.777   4
  -6  -7   1-371.322 789.499   4
  -6  -7   2 1977.95 1096.47   4
  -6  -7   3 1834.37 1064.04   2
  -6  -7   4 2914.83 1210.43   2
  -6  -7   5 2341.45 1251.13   2
  -6  -7   6-163.605 669.964   2
  -6  -7   7 108.190 578.709   2
  -6  -7   8 2563.99 1267.81   2
  -6  -7   9 650.801 868.727   2
  -6  -7  10-289.089 830.659   2
  -6  -7  11-946.603 1379.42   2
  -6  -6 -14 916.310 873.093   4
  -6  -6 -13 1351.04 1128.65   4
  -6  -6 -12 1455.25 1059.87   4
  -6  -6 -11 380.827 684.937   4
  -6  -6 -10 3082.94 1254.58   4
  -6  -6  -9 2127.60 1042.22   4
  -6  -6  -8 2433.90 1331.58   4
  -6  -6  -7 475.957 926.628   4
  -6  -6  -6-567.612 847.794   4
  -6  -6  -5 1382.76 958.097   4
  -6  -6  -4 1696.58 1327.37   4
  -6  -6  -3 3304.46 1530.22   4
  -6  -6  -2 6267.08 1842.10   4
  -6  -6  -1 7672.22 2029.18   4
  -6  -6   0 2319.69 1018.52   4
  -6  -6   1 313.557 1063.91   4
  -6  -6   2-294.409 661.506   4
  -6  -6   2-307.820 730.163   2
  -6  -6   3 72.3625 618.427   2
  -6  -6   3 1227.39 892.968   4
  -6  -6   4 2309.32 1004.73   2
  -6  -6   5 1749.90 917.796   2
  -6  -6   6 180.936 532.832   2
  -6  -6   7 1003.13 1012.44   2
  -6  -6   8-921.466 1009.84   2
  -6  -6   9-130.977 593.791   2
  -6  -6  10-374.675 915.875   2
  -6  -6  11 1454.37 1152.12   2
  -6  -6  12-398.392 1308.56   2
  -6  -5 -14 2262.46 1400.00   4
  -6  -5 -13 1315.22 1104.98   4
  -6  -5 -12 3960.91 1614.42   4
  -6  -5 -11-1532.27 955.265   4
  -6  -5 -10-383.583 790.542   4
  -6  -5  -9 828.535 977.892   4
  -6  -5  -8 802.285 930.136   4
  -6  -5  -7-19.4195 840.253   4
  -6  -5  -6 1558.76 792.150   4
  -6  -5  -5 5020.75 1713.84   4
  -6  -5  -4 4445.82 1654.09   4
  -6  -5  -3 1588.85 1105.98   4
  -6  -5  -2 244.230 574.298   4
  -6  -5  -1 1811.27 1161.64   4
  -6  -5   0 1259.50 1096.73   4
  -6  -5   1 2903.16 930.104   2
  -6  -5   1 3614.26 1508.91   4
  -6  -5   2 2296.44 831.147   2
  -6  -5   2 2888.63 1238.62   4
  -6  -5   3 3059.72 1409.87   4
  -6  -5   3 569.094 579.779   2
  -6  -5   4 35.5611 819.245   2
  -6  -5   5-2229.29 1116.64   2
  -6  -5   6 1110.20 800.189   2
  -6  -5   7 1305.52 817.017   2
  -6  -5   8 2734.04 1376.08   2
  -6  -5   9 1972.38 1310.78   2
  -6  -5  10 1219.08 853.746   2
  -6  -5  11 192.670 929.755   2
  -6  -5  12-1288.56 1221.48   2
  -6  -5  13-2622.87 1591.32   2
  -6  -4 -15 1762.02 1336.36   4
  -6  -4 -14 2261.61 1473.19   4
  -6  -4 -13 358.384 921.047   4
  -6  -4 -12 1840.17 1269.04   4
  -6  -4 -11 1477.81 970.315   4
  -6  -4 -10 3508.86 1663.94   4
  -6  -4  -9 2490.06 1170.35   4
  -6  -4  -8 6014.55 1797.27   4
  -6  -4  -7 1939.75 1185.91   4
  -6  -4  -6-429.768 1079.68   4
  -6  -4  -5 940.287 634.672   4
  -6  -4  -4 3155.86 1623.64   4
  -6  -4  -3 6675.23 1936.77   4
  -6  -4  -2 8002.18 1972.38   4
  -6  -4  -1 5687.11 1824.57   4
  -6  -4   0 2276.65 1144.92   4
  -6  -4   1 1261.54 743.222   4
  -6  -4   1-111.576 382.903   2
  -6  -4   2 65.9720 971.610   4
  -6  -4   2 1502.34 879.915   2
  -6  -4   3 3601.46 1280.90   4
  -6  -4   3 2188.14 896.821   2
  -6  -4   4 3077.53 1121.99   4
  -6  -4   4 2326.93 1019.32   2
  -6  -4   5 477.442 750.538   3
  -6  -4   5 2993.64 1137.98   2
  -6  -4   6 3601.39 1389.09   2
  -6  -4   6 1603.23 879.254   3
  -6  -4   7 3013.41 1353.51   2
  -6  -4   8-424.495 627.697   2
  -6  -4   9 2104.53 1288.15   2
  -6  -4  10 2810.94 1494.18   2
  -6  -4  11 1972.35 1247.39   2
  -6  -4  12 784.050 1045.81   2
  -6  -4  13 1304.78 1093.38   2
  -6  -4  14 229.660 1113.31   2
  -6  -3 -15-260.704 684.304   4
  -6  -3 -14 1588.96 1142.92   4
  -6  -3 -13 2423.35 1337.48   4
  -6  -3 -12 1860.68 1112.41   4
  -6  -3 -11 2374.28 1050.20   4
  -6  -3 -10 2895.40 1513.47   4
  -6  -3  -9 1152.13 1216.26   4
  -6  -3  -8 485.537 937.049   4
  -6  -3  -7 5069.08 1763.22   4
  -6  -3  -6 4032.92 1541.95   4
  -6  -3  -5 2636.90 997.958   4
  -6  -3  -4 4625.42 1579.84   4
  -6  -3  -3 1788.05 999.145   4
  -6  -3  -2 2506.84 1178.02   4
  -6  -3  -1 1125.23 896.373   4
  -6  -3   0 2541.44 1138.83   4
  -6  -3   0 1988.03 757.845   2
  -6  -3   1 5275.91 1167.95   2
  -6  -3   1 6752.60 1697.84   4
  -6  -3   2 3695.77 1142.91   2
  -6  -3   2 5347.68 1538.98   4
  -6  -3   3 3817.75 1188.08   4
  -6  -3   3 4164.40 1241.04   2
  -6  -3   4 905.258 797.549   4
  -6  -3   4 2052.59 976.172   2
  -6  -3   5 653.555 663.343   3
  -6  -3   5 457.842 438.457   2
  -6  -3   5 428.411 529.090   4
  -6  -3   6 406.839 643.119   2
  -6  -3   6 477.661 559.505   3
  -6  -3   7 1966.36 1142.34   3
  -6  -3   7 3642.28 1421.23   2
  -6  -3   8 2430.35 1174.48   2
  -6  -3   8 1063.62 807.464   3
  -6  -3   9 2439.35 1380.03   2
  -6  -3  10 2218.16 1171.68   2
  -6  -3  11 147.760 1037.27   2
  -6  -3  12 528.367 1300.24   2
  -6  -3  13 1098.45 1208.22   2
  -6  -3  14-626.500 863.332   2
  -6  -2 -15-71.2845 584.189   4
  -6  -2 -14 1214.51 1023.15   4
  -6  -2 -13 874.593 1103.86   4
  -6  -2 -12 1071.36 1035.27   4
  -6  -2 -11 1742.92 993.854   4
  -6  -2 -10 2082.54 1188.86   4
  -6  -2  -9 3500.30 1491.04   4
  -6  -2  -8 2721.39 1491.82   4
  -6  -2  -7 2498.22 1340.74   4
  -6  -2  -6 802.849 815.411   4
  -6  -2  -5 1266.71 799.263   4
  -6  -2  -4 3981.58 1411.15   4
  -6  -2  -3 6740.61 1649.85   4
  -6  -2  -2 7935.85 1796.89   4
  -6  -2  -1 7402.63 1744.30   4
  -6  -2   0 1470.76 730.515   2
  -6  -2   0 1158.73 561.714   4
  -6  -2   1 54.4805 414.886   2
  -6  -2   1 1320.96 1095.12   4
  -6  -2   2 1766.41 718.274   2
  -6  -2   2 1984.51 1020.28   4
  -6  -2   3 4096.15 1399.84   4
  -6  -2   3 3214.16 1075.42   2
  -6  -2   4 2963.90 926.789   2
  -6  -2   4 2796.63 1103.20   4
  -6  -2   4 3597.51 1372.15   3
  -6  -2   5 4180.76 1275.20   4
  -6  -2   5 4000.75 1311.67   3
  -6  -2   5 1320.30 733.874   2
  -6  -2   6 1174.33 966.881   4
  -6  -2   6 1513.32 847.343   3
  -6  -2   6 1528.43 817.485   2
  -6  -2   7 1631.96 806.995   2
  -6  -2   7 1118.78 879.229   3
  -6  -2   7 135.336 812.213   4
  -6  -2   8 615.134 696.051   2
  -6  -2   8 1344.92 808.411   3
  -6  -2   9 109.053 639.443   3
  -6  -2   9 362.908 612.571   2
  -6  -2  10 5.08743 884.338   2
  -6  -2  10 2000.69 1018.24   3
  -6  -2  11 3091.69 1431.48   2
  -6  -2  12 1927.95 1430.72   2
  -6  -2  13 405.413 1108.66   2
  -6  -2  14 2136.55 960.974   2
  -6  -2  15 42.0939 1055.08   2
  -6  -1 -15 1495.04 1053.04   4
  -6  -1 -14 3134.17 1507.60   4
  -6  -1 -13 1164.39 794.147   4
  -6  -1 -12 3592.07 1540.36   4
  -6  -1 -11 1451.35 1083.32   4
  -6  -1 -10 1097.33 1157.89   4
  -6  -1  -9 1689.65 934.000   4
  -6  -1  -8 2494.94 1184.31   4
  -6  -1  -7 4127.19 1490.05   4
  -6  -1  -6 3396.52 1325.66   4
  -6  -1  -5 3908.95 1350.82   4
  -6  -1  -4 4285.26 1388.37   4
  -6  -1  -3-650.657 593.783   4
  -6  -1  -2-476.808 485.202   4
  -6  -1  -1 179.547 719.363   4
  -6  -1   0 2209.53 1082.61   4
  -6  -1   1 5233.38 1434.97   4
  -6  -1   2 4800.38 1379.33   4
  -6  -1   3 3683.06 1359.91   3
  -6  -1   3 4058.79 1244.08   4
  -6  -1   4 217.264 473.793   3
  -6  -1   4-167.672 420.641   4
  -6  -1   5 30.4183 576.740   3
  -6  -1   5-467.437 629.466   4
  -6  -1   6 1445.99 1106.77   3
  -6  -1   6 2041.21 900.411   4
  -6  -1   7 1781.09 833.867   4
  -6  -1   7 3833.70 1445.12   3
  -6  -1   8 3432.19 1127.78   4
  -6  -1   8 3245.53 1340.57   3
  -6  -1   9 1916.36 911.361   4
  -6  -1   9 2928.47 1393.50   3
  -6  -1  10-350.973 918.141   3
  -6  -1  10 245.013 834.666   2
  -6  -1  11-4315.07 1430.54   3
  -6  -1  11 1223.87 1083.89   2
  -6  -1  12 633.339 905.954   2
  -6  -1  13-275.291 929.675   2
  -6  -1  14-215.918 986.828   2
  -6  -1  15 456.750 1333.55   2
  -6   0 -15 1535.85 1033.27   4
  -6   0 -14 601.396 958.250   4
  -6   0 -13 1149.02 1023.53   4
  -6   0 -12 1332.84 1037.68   4
  -6   0 -11 2445.42 1117.38   4
  -6   0 -10 2865.03 1232.43   4
  -6   0  -9 3120.17 1312.19   4
  -6   0  -8 2443.36 1139.77   4
  -6   0  -7 1589.76 1117.69   4
  -6   0  -6 1786.10 1054.77   4
  -6   0  -5 2162.04 1123.74   4
  -6   0  -4 3950.59 1367.04   4
  -6   0  -3 5331.32 1396.16   4
  -6   0  -2 4850.14 1319.67   4
  -6   0  -1 2163.09 1001.75   4
  -6   0   0 1355.55 772.352   4
  -6   0   1 1352.89 837.839   4
  -6   0   2 360.228 423.036   4
  -6   0   2 891.962 828.670   3
  -6   0   3 4387.65 1243.87   4
  -6   0   3 3528.72 1358.30   3
  -6   0   4 4311.14 1425.82   3
  -6   0   4 1903.60 727.307   4
  -6   0   5 3934.52 1513.24   3
  -6   0   5 3233.28 1010.86   4
  -6   0   6 1378.38 881.731   4
  -6   0   6 2623.31 1324.31   3
  -6   0   7 3187.07 1405.72   3
  -6   0   8 399.351 502.204   3
  -6   0   9 1.00847 887.217   3
  -6   0  10-290.485 624.139   3
  -6   0  11 1083.14 783.349   3
  -6   0  12-1193.23 913.212   3
  -6   0  13 1082.98 1076.61   3
  -6   0  14 209.865 836.665   2
  -6   0  15 1382.02 1048.44   2
  -6   1 -15 34.6946 724.990   4
  -6   1 -14 195.744 740.130   4
  -6   1 -13 1508.44 917.206   4
  -6   1 -12 3069.88 1219.84   4
  -6   1 -11-170.189 773.794   4
  -6   1 -10 68.1030 701.113   4
  -6   1  -9 1717.60 1138.49   4
  -6   1  -8 3695.29 1334.33   4
  -6   1  -7 3973.02 1338.00   4
  -6   1  -6 5152.32 1353.72   4
  -6   1  -5 3745.96 1345.84   4
  -6   1  -4 2377.37 1080.19   4
  -6   1  -3 2319.14 1027.36   4
  -6   1  -2 1957.04 989.474   4
  -6   1  -1 2692.56 1026.80   4
  -6   1   0 4891.26 1616.47   3
  -6   1   0 1842.70 705.424   4
  -6   1   1 2616.56 1213.89   3
  -6   1   1 3540.16 1059.32   4
  -6   1   2 2660.65 930.474   4
  -6   1   2 2815.81 1345.33   3
  -6   1   3 242.750 529.265   4
  -6   1   3 3312.73 1462.65   3
  -6   1   4-285.901 655.424   3
  -6   1   5 887.346 1028.06   3
  -6   1   6 1561.61 1098.34   3
  -6   1   7 2720.88 1406.87   3
  -6   1   8 2741.65 1443.92   3
  -6   1   9-727.062 972.416   3
  -6   1  10 798.720 859.367   3
  -6   1  11-236.879 936.031   3
  -6   1  12 736.581 749.094   3
  -6   1  13 628.188 812.134   3
  -6   1  14 2303.86 1346.67   3
  -6   2 -14 2036.48 1395.39   4
  -6   2 -13-102.105 815.376   4
  -6   2 -12 337.372 935.313   4
  -6   2 -11 1022.39 860.313   4
  -6   2 -10 163.918 553.275   4
  -6   2  -9 1481.28 953.112   4
  -6   2  -8 464.365 430.960   4
  -6   2  -7 285.957 365.305   4
  -6   2  -6 1293.19 805.239   4
  -6   2  -5 1337.88 886.912   4
  -6   2  -5 563.931 487.605   9
  -6   2  -4 1366.34 853.244   4
  -6   2  -4 84.8852 382.938   9
  -6   2  -3 2113.01 920.225   4
  -6   2  -2 4226.98 1227.01   4
  -6   2  -1 4409.39 1154.99   4
  -6   2  -1 5196.06 1639.12   3
  -6   2   0 2481.48 1391.04   3
  -6   2   0 1369.37 763.189   4
  -6   2   1 1050.31 911.161   3
  -6   2   2 1121.08 1147.06   3
  -6   2   3 3875.21 1535.04   3
  -6   2   4 3225.96 1380.17   3
  -6   2   5 2822.88 1503.98   3
  -6   2   6 2510.01 1420.89   3
  -6   2   7 2426.40 1544.49   3
  -6   2   8 372.515 703.494   3
  -6   2   9 1880.69 1286.39   3
  -6   2  10 2542.34 1302.50   3
  -6   2  11 2974.84 1510.20   3
  -6   2  11 1278.39 848.538   1
  -6   2  12 1658.69 1126.06   3
  -6   2  12 114.630 602.850   1
  -6   2  13-253.733 513.757   1
  -6   2  13 257.284 838.712   3
  -6   2  14-199.185 455.541   1
  -6   2  14 268.329 980.549   3
  -6   2  15-502.912 775.936   3
  -6   2  15-568.340 652.661   1
  -6   2  16-433.247 865.326   1
  -6   2  16 1561.12 1334.94   3
  -6   3 -14 1252.52 1245.96   4
  -6   3 -13 2509.01 1407.13   4
  -6   3 -12 1320.07 1146.34   4
  -6   3 -11-21.1070 661.220   4
  -6   3 -10 73.6757 517.436   4
  -6   3  -9 179.450 435.819   4
  -6   3  -8 1770.91 904.379   4
  -6   3  -7 2317.01 1050.16   9
  -6   3  -7 1518.17 813.374   4
  -6   3  -6 2104.75 1074.15   4
  -6   3  -6 3084.43 1045.92   9
  -6   3  -5 1506.83 856.458   4
  -6   3  -5 1899.26 896.355   9
  -6   3  -4 856.249 586.900   4
  -6   3  -4 293.745 549.671   3
  -6   3  -4 961.039 684.904   9
  -6   3  -3-70.4657 581.611   4
  -6   3  -3 250.691 483.371   9
  -6   3  -3 67.3547 554.393   3
  -6   3  -2 1614.61 861.539   9
  -6   3  -2 1534.11 1037.47   3
  -6   3  -1 2485.58 973.298   9
  -6   3  -1 2852.82 1339.24   3
  -6   3   0 3232.97 1420.04   3
  -6   3   1 1529.72 1109.59   3
  -6   3   2 944.003 1001.44   3
  -6   3   3-544.899 691.786   3
  -6   3   4 241.134 616.870   3
  -6   3   5 470.534 1028.06   3
  -6   3   6 852.968 1025.93   3
  -6   3   7 950.388 899.000   3
  -6   3   8 174.010 699.914   3
  -6   3   9 2436.99 1513.85   3
  -6   3  10 549.159 1044.20   3
  -6   3  11 2172.97 1509.54   3
  -6   3  12 530.483 1004.65   3
  -6   3  13-627.687 928.820   3
  -6   3  13 517.632 580.108   1
  -6   3  14 195.881 770.902   1
  -6   3  14 270.618 931.186   3
  -6   3  15 296.129 635.283   1
  -6   3  15 1304.66 1043.31   3
  -6   3  16 363.297 1039.35   3
  -6   3  16 368.482 686.454   1
  -6   4 -13 317.174 670.105   4
  -6   4 -12 1237.97 986.257   4
  -6   4 -11 818.735 1037.07   4
  -6   4 -10 1758.52 1175.03   4
  -6   4  -9 3069.85 1424.64   4
  -6   4  -8 533.642 485.269   3
  -6   4  -8 597.172 831.884   9
  -6   4  -7 156.543 524.906   3
  -6   4  -7 371.820 559.756   9
  -6   4  -6 173.536 619.113   3
  -6   4  -6 1171.78 849.566   9
  -6   4  -5 866.865 751.757   9
  -6   4  -5-376.998 631.718   3
  -6   4  -4 1477.79 834.127   9
  -6   4  -4 1493.36 921.453   3
  -6   4  -3 1102.39 951.496   3
  -6   4  -3 1618.08 887.337   9
  -6   4  -2 1071.75 879.109   3
  -6   4  -2 1688.78 911.370   9
  -6   4  -1 1081.86 800.584   9
  -6   4  -1 17.2551 758.494   3
  -6   4   0-527.996 760.888   9
  -6   4   0 558.742 1091.03   3
  -6   4   1 8.40348 465.644   9
  -6   4   1 584.380 846.712   3
  -6   4   2 498.120 895.374   3
  -6   4   3 2323.19 1372.74   3
  -6   4   4 2084.06 1298.84   3
  -6   4   5 1150.65 1138.35   3
  -6   4   6 3013.81 1361.19   3
  -6   4   7 473.833 1169.36   3
  -6   4   8-1314.56 1040.66   3
  -6   4   9 1129.18 1098.43   3
  -6   4  10 3924.64 1758.82   3
  -6   4  11 119.441 915.843   3
  -6   4  12 896.396 1213.71   3
  -6   4  13 1413.15 1319.81   3
  -6   4  14 1530.81 1624.56   3
  -6   4  14-1678.02 1028.13   1
  -6   4  15 514.232 690.021   1
  -6   5 -10 746.245 695.448   3
  -6   5  -9 335.398 770.218   3
  -6   5  -9 715.940 549.176   9
  -6   5  -8-511.020 626.650   9
  -6   5  -8-960.820 878.756   3
  -6   5  -7 878.137 659.714   9
  -6   5  -7 508.118 815.173   3
  -6   5  -6 1544.56 880.669   9
  -6   5  -6-702.208 751.419   3
  -6   5  -5 78.2606 872.297   3
  -6   5  -5 931.975 862.127   9
  -6   5  -4-95.1512 636.471   9
  -6   5  -4-2.09129 627.342   3
  -6   5  -3 133.239 890.572   3
  -6   5  -3-21.6820 420.016   9
  -6   5  -2 66.9965 690.518   3
  -6   5  -2 1478.05 925.756   9
  -6   5  -1 1016.01 752.579   9
  -6   5  -1 2239.00 1283.25   3
  -6   5   0 1246.73 994.884   9
  -6   5   0 1501.67 999.662   3
  -6   5   1 2130.74 1148.54   3
  -6   5   1 598.315 642.011   9
  -6   5   2 1182.13 936.482   9
  -6   5   2 1150.90 1161.44   3
  -6   5   3 1679.92 1041.90   3
  -6   5   3 93.9345 774.801   9
  -6   5   4-2062.20 1234.52   3
  -6   5   5 1987.97 1306.47   3
  -6   5   6 2138.85 1272.79   3
  -6   5   7-549.803 991.573   3
  -6   5   8 723.737 1062.39   3
  -6   5   9-613.407 834.183   3
  -6   5  10 3784.13 1768.29   3
  -6   5  11-1781.96 1220.89   3
  -6   5  12 555.486 785.931   3
  -6   6  -9 356.778 712.330   9
  -6   6  -8 309.758 569.271   9
  -6   6  -8 61.2738 460.710   3
  -6   6  -7-8.11722 455.186   9
  -6   6  -7-742.800 672.243   3
  -6   6  -6 438.578 605.306   3
  -6   6  -6 556.031 711.301   9
  -6   6  -5-235.839 552.269   3
  -6   6  -5 803.986 800.084   9
  -6   6  -4-183.253 555.549   3
  -6   6  -4-366.765 490.345   9
  -6   6  -3 364.007 805.714   9
  -6   6  -3 916.035 746.293   3
  -6   6  -2 459.251 780.281   9
  -6   6  -2 2053.17 1276.53   3
  -6   6  -1-1094.44 903.490   3
  -6   6  -1 259.508 466.545   9
  -6   6   0 676.662 842.247   3
  -6   6   0-599.256 815.859   9
  -6   6   1 765.046 1166.30   3
  -6   6   1 511.825 855.192   9
  -6   6   2 363.467 662.227   9
  -6   6   2 607.324 824.574   3
  -6   6   3 1538.80 715.541   9
  -6   6   3 757.221 880.889   3
  -6   6   4 523.747 668.878   9
  -6   6   4 1042.17 732.043   3
  -6   6   5-2131.12 1439.76   3
  -6   6   6 505.879 799.743   3
  -6   6   7 516.915 882.263   3
  -6   6   8 863.696 1017.04   3
  -6   6   9 1202.48 906.762   3
  -6   7  -6 330.453 725.385   9
  -6   7  -6 2468.60 1209.62   3
  -6   7  -5 557.299 552.223   9
  -6   7  -5 1171.44 1063.64   3
  -6   7  -4 860.198 936.068   9
  -6   7  -4-2.33573 623.971   3
  -6   7  -3-305.561 732.561   9
  -6   7  -3-436.475 632.911   3
  -6   7  -2 214.846 786.641   3
  -6   7  -2-412.234 629.040   9
  -6   7  -1 44.7630 674.422   3
  -6   7  -1 332.121 915.163   9
  -6   7   0 779.340 813.087   3
  -6   7   0 282.189 582.216   9
  -6   7   1 1298.49 899.964   9
  -6   7   1-517.459 693.144   3
  -6   7   2-3431.63 1500.32   3
  -6   7   2 1906.26 1278.26   9
  -6   7   3 607.303 900.006   9
  -6   7   3 551.811 559.963   3
  -6   7   4 592.558 751.491   9
  -6   7   4-543.463 1061.53   3
  -6   7   5 739.201 725.302   9
  -6   7   5-244.903 964.577   3
  -6   8  -1 204.669 649.445   9
  -6   8   0-787.455 1006.04   9
  -6   8   1-1663.04 1032.01   9
  -6   8   2 164.721 882.036   9
  -6   8   3 38.7858 662.287   9
  -6   8   4-1542.89 1016.25   9
  -6   8   5 413.786 985.118   9
  -6   8   6-424.187 992.753   9
  -5 -11  -9 1788.44 1439.83  10
  -5 -11  -8 2013.33 1314.55   4
  -5 -11  -8 848.551 1055.07  10
  -5 -11  -7 1811.92 1357.70   4
  -5 -11  -7 652.027 795.583  10
  -5 -11  -6 1658.30 1229.06  10
  -5 -11  -6-1105.76 905.217   4
  -5 -11  -5-645.278 1004.29   4
  -5 -11  -4 153.165 585.017   4
  -5 -11  -3 993.940 1183.94   4
  -5 -11  -2 594.982 961.079   4
  -5 -11  -1-466.092 1095.85   4
  -5 -11   0-721.502 853.056   4
  -5 -11   3 465.644 676.163   2
  -5 -11   4 792.821 853.537   2
  -5 -11   5 2946.70 1667.71   2
  -5 -10 -12-865.363 942.431   4
  -5 -10 -11-862.846 803.586   4
  -5 -10 -11-1668.59 1121.30  10
  -5 -10 -10 239.559 675.773  10
  -5 -10 -10-936.946 1180.75   4
  -5 -10  -9 229.601 676.256  10
  -5 -10  -9 171.908 766.710   4
  -5 -10  -8 909.917 901.129   4
  -5 -10  -8 302.363 751.000  10
  -5 -10  -7 4268.01 1670.50   4
  -5 -10  -7 2172.61 1168.39  10
  -5 -10  -6 2789.60 1299.65  10
  -5 -10  -6 936.135 1032.60   4
  -5 -10  -5 1467.05 967.797  10
  -5 -10  -5 172.974 654.641   4
  -5 -10  -4 622.334 1062.33   4
  -5 -10  -3 262.314 789.888   4
  -5 -10  -2 1465.69 1219.70   4
  -5 -10  -1-497.417 900.901   4
  -5 -10   0 1281.77 969.398   4
  -5 -10   2 3669.16 1624.33   2
  -5 -10   3-1494.36 1146.41   2
  -5 -10   4 920.879 1283.16   2
  -5 -10   5-785.468 906.655   2
  -5 -10   6 2016.36 1313.62   2
  -5 -10   7 33.5872 904.194   2
  -5  -9 -14 464.314 649.866   4
  -5  -9 -13 176.356 678.977   4
  -5  -9 -12 1081.74 1127.94   4
  -5  -9 -11 690.025 871.255   4
  -5  -9 -10 1977.87 1219.40   4
  -5  -9  -9-278.469 734.109   4
  -5  -9  -8 797.280 696.290   4
  -5  -9  -7 531.314 738.901   4
  -5  -9  -6-487.404 1050.37   4
  -5  -9  -6 1803.49 1244.90  10
  -5  -9  -5 511.432 870.105  10
  -5  -9  -5 710.178 848.660   4
  -5  -9  -4 1614.91 1097.29  10
  -5  -9  -4 2757.59 1511.45   4
  -5  -9  -3 1755.64 1268.16   4
  -5  -9  -3 3574.05 1496.40  10
  -5  -9  -2 1325.69 921.592   4
  -5  -9  -1 152.686 577.855   4
  -5  -9   0-1034.87 1092.90   4
  -5  -9   1 1226.61 993.102   2
  -5  -9   2 2559.04 1365.44   2
  -5  -9   3 1553.43 1233.54   2
  -5  -9   4 1386.42 1003.06   2
  -5  -9   5-766.017 1051.17   2
  -5  -9   6-2396.13 1362.69   2
  -5  -9   7 3716.19 1564.52   2
  -5  -9   8 5135.94 2196.16   2
  -5  -9   9 2496.13 1720.20   2
  -5  -9  10 2053.80 1765.54   2
  -5  -8 -15 1339.91 1157.83   4
  -5  -8 -14 3153.93 1587.77   4
  -5  -8 -13 1875.08 1212.36   4
  -5  -8 -12-943.066 677.760   4
  -5  -8 -11-957.477 992.625   4
  -5  -8 -10-490.430 763.120   4
  -5  -8  -9-17.2365 695.089   4
  -5  -8  -8 2490.04 1257.77   4
  -5  -8  -7 3474.18 1482.68   4
  -5  -8  -6 1821.29 1157.28   4
  -5  -8  -5 3229.78 1429.67   4
  -5  -8  -4 1589.57 1059.10   4
  -5  -8  -3-829.406 705.615   4
  -5  -8  -2 689.882 802.286   4
  -5  -8  -1 2737.85 1202.89   4
  -5  -8  -1 3799.97 1272.69  10
  -5  -8   0 2192.83 1037.26   2
  -5  -8   0 2992.68 1230.80   4
  -5  -8   1 855.634 697.407   2
  -5  -8   2 1845.89 1197.41   2
  -5  -8   3 1317.68 1200.16   2
  -5  -8   4 502.828 847.417   2
  -5  -8   5 3454.51 1555.34   2
  -5  -8   6 3683.98 1677.20   2
  -5  -8   7 5553.80 1975.84   2
  -5  -8   8 2517.81 1418.51   2
  -5  -8   9 3895.74 1846.01   2
  -5  -8  10 2112.84 1521.41   2
  -5  -8  11-130.250 807.165   2
  -5  -7 -16 823.180 1015.42   4
  -5  -7 -15 678.899 835.038   4
  -5  -7 -14 1218.72 977.572   4
  -5  -7 -13-397.520 819.470   4
  -5  -7 -12 1513.84 918.250   4
  -5  -7 -11 3222.54 1487.83   4
  -5  -7 -10 2944.11 1324.80   4
  -5  -7  -9 931.089 552.834   4
  -5  -7  -8 166.150 670.965   4
  -5  -7  -7 2247.14 1215.62   4
  -5  -7  -6 2428.34 1281.77   4
  -5  -7  -5 4593.02 1589.03   4
  -5  -7  -4 8402.57 2056.47   4
  -5  -7  -3 6624.02 1858.67   4
  -5  -7  -2 2872.34 1389.85   4
  -5  -7  -1 1333.26 996.627   4
  -5  -7  -1-88.8623 706.111   2
  -5  -7   0-1121.07 934.230   4
  -5  -7   0 1631.53 860.848   2
  -5  -7   1 1688.50 943.397   2
  -5  -7   2 4738.30 1352.61   2
  -5  -7   3 7194.68 1766.55   2
  -5  -7   4 5294.82 1574.87   2
  -5  -7   5 3606.06 1455.81   2
  -5  -7   6-395.320 644.647   2
  -5  -7   7-1211.20 849.266   2
  -5  -7   8 1810.84 1416.53   2
  -5  -7   9 1083.70 962.525   2
  -5  -7  10 425.289 1043.69   2
  -5  -7  11 2791.00 1729.45   2
  -5  -7  12 1756.19 1496.89   2
  -5  -7  13 1074.40 1454.36   2
  -5  -6 -17 272.323 761.090   4
  -5  -6 -16 672.261 778.382   4
  -5  -6 -15 325.101 746.604   4
  -5  -6 -14 1820.86 1189.99   4
  -5  -6 -13 911.643 882.588   4
  -5  -6 -12 1706.04 1298.86   4
  -5  -6 -11-206.724 617.841   4
  -5  -6 -10 1342.09 955.683   4
  -5  -6  -9 1383.43 992.776   4
  -5  -6  -8 2875.59 1278.53   4
  -5  -6  -7 4881.96 1501.08   4
  -5  -6  -6 6585.39 1779.28   4
  -5  -6  -5 7673.42 1848.76   4
  -5  -6  -4 1845.46 1179.61   4
  -5  -6  -3 359.532 890.675   4
  -5  -6  -2 4971.26 1350.82   4
  -5  -6  -2 5107.45 1153.43   2
  -5  -6  -1 11912.2 2333.64   4
  -5  -6  -1 9276.70 1607.30   2
  -5  -6   0 13053.5 2438.00   4
  -5  -6   0 10451.6 1789.45   2
  -5  -6   1 6807.39 1500.58   2
  -5  -6   2 2047.02 880.849   2
  -5  -6   3 1546.75 840.228   2
  -5  -6   4-66.1160 636.813   2
  -5  -6   5 1964.14 991.337   2
  -5  -6   6 2919.92 1174.56   2
  -5  -6   7 4361.95 1382.48   2
  -5  -6   8 2307.06 1153.28   2
  -5  -6   9-718.244 878.892   2
  -5  -6  10 1898.73 1181.59   2
  -5  -6  11 1384.58 789.161   2
  -5  -6  12-225.377 807.833   2
  -5  -6  13 251.934 848.825   2
  -5  -6  14 540.224 926.451   2
  -5  -5 -18 1836.93 1225.96   4
  -5  -5 -17 343.542 669.036   4
  -5  -5 -16 742.842 873.557   4
  -5  -5 -15 183.714 563.643   4
  -5  -5 -14 872.590 961.309   4
  -5  -5 -13 1134.84 862.739   4
  -5  -5 -12 3690.86 1540.80   4
  -5  -5 -11 4934.09 1605.90   4
  -5  -5 -10 4782.95 1584.05   4
  -5  -5  -9 5641.86 1649.28   4
  -5  -5  -8 1203.55 973.523   4
  -5  -5  -7 1482.85 884.976   4
  -5  -5  -6 6126.20 1790.82   4
  -5  -5  -5 11384.7 2233.77   4
  -5  -5  -4 11555.0 2133.40   4
  -5  -5  -3 2083.21 1037.01   4
  -5  -5  -2 1738.35 1146.53   4
  -5  -5  -2 4041.42 985.022   2
  -5  -5  -1 862.190 582.237   2
  -5  -5  -1 1796.96 1104.33   4
  -5  -5   0 676.391 528.577   4
  -5  -5   0 294.509 467.884   2
  -5  -5   1 2652.28 1156.08   4
  -5  -5   1 1733.59 659.274   2
  -5  -5   2 6335.95 1272.36   2
  -5  -5   3 4987.40 1177.68   2
  -5  -5   4 6038.74 1349.86   2
  -5  -5   5 2133.78 860.823   2
  -5  -5   6 249.213 760.939   2
  -5  -5   7 1892.75 1138.32   2
  -5  -5   8 1014.18 820.078   2
  -5  -5   9 2564.61 967.759   2
  -5  -5  10 2705.14 1237.57   2
  -5  -5  11 319.532 998.084   2
  -5  -5  12 379.789 812.825   2
  -5  -5  13-2100.73 1318.10   2
  -5  -5  14-2463.43 1467.66   2
  -5  -5  15-958.958 967.839   2
  -5  -4 -18-139.370 605.193   4
  -5  -4 -17-667.636 738.850   4
  -5  -4 -16 1809.70 1088.15   4
  -5  -4 -15 1946.66 1255.34   4
  -5  -4 -14 3955.29 1408.69   4
  -5  -4 -13 2885.93 1294.56   4
  -5  -4 -12 805.999 895.165   4
  -5  -4 -11 863.006 660.578   4
  -5  -4 -10 1650.45 1136.95   4
  -5  -4  -9 4640.83 1396.04   4
  -5  -4  -8 6682.17 1808.91   4
  -5  -4  -7 9033.59 1871.64   4
  -5  -4  -6 8058.32 1822.01   4
  -5  -4  -5 4615.29 1476.18   4
  -5  -4  -4 995.093 856.253   4
  -5  -4  -3 494.413 440.887   2
  -5  -4  -3 1019.56 753.721   4
  -5  -4  -2 10753.9 1866.38   4
  -5  -4  -2 8077.25 1174.93   2
  -5  -4  -1 19678.2 2595.95   4
  -5  -4  -1 19246.8 1888.09   2
  -5  -4   0 16060.6 1853.90   2
  -5  -4   0 21572.3 2807.17   4
  -5  -4   1 11099.4 1931.52   4
  -5  -4   1 9768.06 1531.95   2
  -5  -4   2 4469.67 1166.51   2
  -5  -4   3 1548.49 776.901   2
  -5  -4   4 3333.49 1128.56   2
  -5  -4   5 8401.98 1695.07   2
  -5  -4   6 9215.61 1869.78   2
  -5  -4   6 5519.83 1296.05   3
  -5  -4   7 5485.45 1254.83   3
  -5  -4   7 7655.00 1700.59   2
  -5  -4   8 4612.57 1436.48   2
  -5  -4   9 147.897 932.472   2
  -5  -4  10 202.290 690.066   2
  -5  -4  11-120.023 543.358   1
  -5  -4  11 2223.72 1308.41   2
  -5  -4  12 2273.59 1511.99   2
  -5  -4  12 436.226 618.843   1
  -5  -4  13 959.335 832.036   1
  -5  -4  13 1002.59 1065.16   2
  -5  -4  14 2733.06 1312.25   1
  -5  -4  14 686.248 703.717   2
  -5  -4  15 1928.63 1081.46   1
  -5  -4  15 3801.22 1711.41   2
  -5  -4  16 337.910 835.467   2
  -5  -4  16 1560.93 1165.36   1
  -5  -3 -18 659.469 989.346   4
  -5  -3 -17-224.574 867.547   4
  -5  -3 -16 3301.65 1537.91   4
  -5  -3 -15 662.460 742.629   4
  -5  -3 -14-180.466 755.360   4
  -5  -3 -13 2672.23 1243.45   4
  -5  -3 -12 2574.29 1223.15   4
  -5  -3 -11 3578.00 1237.69   4
  -5  -3 -10 4438.30 1417.91   4
  -5  -3  -9 3020.96 1335.50   4
  -5  -3  -8-188.454 732.417   4
  -5  -3  -7 1583.36 916.974   4
  -5  -3  -6 5177.68 1411.86   4
  -5  -3  -5 10049.3 1876.62   4
  -5  -3  -4 16299.3 2456.75   4
  -5  -3  -3 15790.3 2338.57   4
  -5  -3  -3 14010.5 1441.68   2
  -5  -3  -2 8284.40 1172.28   2
  -5  -3  -2 9534.36 1907.88   4
  -5  -3  -1 455.850 814.293   4
  -5  -3  -1-121.824 367.402   2
  -5  -3   0-71.1163 705.789   4
  -5  -3   0 1039.00 508.760   2
  -5  -3   1 8092.93 1597.39   4
  -5  -3   1 6755.49 1188.89   2
  -5  -3   2 12537.7 1735.53   2
  -5  -3   2 12955.0 1995.35   4
  -5  -3   3 11281.9 1724.31   2
  -5  -3   4 5845.76 1358.89   2
  -5  -3   5 462.771 518.276   2
  -5  -3   5 1401.78 713.281   3
  -5  -3   6 322.075 712.691   2
  -5  -3   6 1087.78 658.548   3
  -5  -3   7 108.061 640.546   3
  -5  -3   7-334.362 341.902   1
  -5  -3   7 770.204 937.615   2
  -5  -3   8 57.5557 364.862   1
  -5  -3   8 882.162 637.052   2
  -5  -3   8 850.852 635.839   3
  -5  -3   9 3006.38 1241.80   2
  -5  -3   9 834.928 644.448   3
  -5  -3   9 2522.90 904.849   1
  -5  -3  10 2280.32 881.225   1
  -5  -3  10 3691.92 1390.45   2
  -5  -3  11 3705.37 1415.29   2
  -5  -3  11 1950.86 976.784   1
  -5  -3  12 1227.58 882.861   1
  -5  -3  12 3024.00 1500.12   2
  -5  -3  13 1133.84 667.564   2
  -5  -3  13-79.9638 485.161   1
  -5  -3  14 667.803 956.523   1
  -5  -3  14 2797.74 1389.42   2
  -5  -3  15 1394.23 1105.18   2
  -5  -3  15 286.247 545.451   1
  -5  -3  16 4908.41 2117.32   2
  -5  -3  16-523.102 673.085   1
  -5  -3  17 813.638 987.561   2
  -5  -3  17-327.618 838.953   1
  -5  -3  18-1180.89 986.954   1
  -5  -2 -18-1312.91 920.901   4
  -5  -2 -17-587.020 670.318   4
  -5  -2 -16 2439.80 1329.72   4
  -5  -2 -15 2003.05 1077.03   4
  -5  -2 -14 3719.47 1456.75   4
  -5  -2 -13 2017.35 1273.38   4
  -5  -2 -12 1982.37 1170.03   4
  -5  -2 -11 1156.29 963.738   4
  -5  -2 -10 4660.90 1403.95   4
  -5  -2  -9 7099.46 1781.38   4
  -5  -2  -8 9168.44 1974.14   4
  -5  -2  -7 8227.52 1625.06   4
  -5  -2  -6 4970.06 1299.53   4
  -5  -2  -5 1463.25 1105.50   4
  -5  -2  -4-21.2419 659.339   4
  -5  -2  -3 3699.50 1059.88   4
  -5  -2  -3 3837.47 737.910   2
  -5  -2  -2 11002.3 1300.98   2
  -5  -2  -2 13169.4 2236.82   4
  -5  -2  -1 14807.6 2180.45   4
  -5  -2  -1 15104.2 1630.98   2
  -5  -2   0 15239.7 2081.59   4
  -5  -2   0 14178.6 1681.45   2
  -5  -2   1 11212.3 1551.45   2
  -5  -2   1 10172.2 1811.45   4
  -5  -2   2 4946.87 1200.39   4
  -5  -2   2 3595.50 890.266   2
  -5  -2   3-149.479 446.293   2
  -5  -2   3-294.202 474.236   4
  -5  -2   4 5146.10 1185.79   2
  -5  -2   4 3583.52 655.083   1
  -5  -2   5 9192.46 1603.04   2
  -5  -2   5 9127.96 1749.38   3
  -5  -2   5 6335.90 954.759   1
  -5  -2   6 10598.7 1842.83   2
  -5  -2   6 8588.69 1220.14   1
  -5  -2   6 10320.9 1852.07   3
  -5  -2   7 10989.7 1979.47   2
  -5  -2   7 8920.81 1312.78   1
  -5  -2   7 10972.0 1850.39   3
  -5  -2   8 1688.81 868.810   3
  -5  -2   8 2184.98 678.960   1
  -5  -2   9-430.930 731.502   2
  -5  -2   9 1137.11 899.597   3
  -5  -2   9 203.170 478.548   1
  -5  -2  10 383.051 421.706   1
  -5  -2  10 88.9045 821.881   2
  -5  -2  10 1408.39 743.272   3
  -5  -2  11 987.298 735.659   2
  -5  -2  11 1354.95 813.774   1
  -5  -2  11 768.143 658.503   3
  -5  -2  12 1167.56 681.466   1
  -5  -2  12 1350.15 1226.22   2
  -5  -2  13 298.762 723.501   1
  -5  -2  13 2098.86 1245.57   2
  -5  -2  14-1520.49 1002.37   1
  -5  -2  14-532.791 871.279   2
  -5  -2  15-604.781 689.846   1
  -5  -2  15 1076.33 757.758   2
  -5  -2  16-708.162 619.465   1
  -5  -2  16 545.612 979.985   2
  -5  -2  17-1461.20 1015.37   1
  -5  -2  17-290.268 974.126   2
  -5  -2  18 120.466 604.907   1
  -5  -2  19 844.850 1056.54   1
  -5  -1 -18-315.190 719.483   4
  -5  -1 -17-632.653 927.429   4
  -5  -1 -16 1374.50 1149.55   4
  -5  -1 -15 22.9197 524.193   4
  -5  -1 -14 1125.90 927.200   4
  -5  -1 -13 1651.86 899.457   4
  -5  -1 -12 1374.35 1020.76   4
  -5  -1 -11 5310.41 1504.71   4
  -5  -1 -10 6022.30 1657.80   4
  -5  -1  -9 3847.98 1505.35   4
  -5  -1  -8 2031.93 1157.79   4
  -5  -1  -7 1152.52 972.805   4
  -5  -1  -6 6253.07 1547.25   4
  -5  -1  -5 16771.0 2270.29   4
  -5  -1  -4 16350.2 2239.88   4
  -5  -1  -3 12586.3 1868.46   4
  -5  -1  -2 4646.19 1202.17   4
  -5  -1  -1 637.946 716.968   4
  -5  -1   0 519.484 743.334   4
  -5  -1   1 16898.8 2121.19   4
  -5  -1   2 13366.4 1165.20   1
  -5  -1   2 14876.7 2054.16   4
  -5  -1   3 12511.8 1226.08   1
  -5  -1   3 13644.9 1950.05   4
  -5  -1   4 8135.36 1690.38   3
  -5  -1   4 6846.40 982.208   1
  -5  -1   4 8609.45 1489.48   4
  -5  -1   5 2413.92 650.510   1
  -5  -1   5 1692.17 848.436   4
  -5  -1   5 2093.53 1036.76   3
  -5  -1   6 195.345 393.943   1
  -5  -1   6 885.688 807.342   3
  -5  -1   7 757.082 568.125   1
  -5  -1   7 1537.96 902.999   3
  -5  -1   8 3664.68 1018.09   1
  -5  -1   8 3296.37 1216.66   3
  -5  -1   9 2217.96 769.952   1
  -5  -1   9 2505.80 964.052   3
  -5  -1  10 3734.38 1120.29   1
  -5  -1  10 824.394 691.702   3
  -5  -1  11 2269.34 1087.92   3
  -5  -1  11 3572.03 1210.78   1
  -5  -1  12 1798.57 821.221   1
  -5  -1  12 591.967 743.832   3
  -5  -1  13 577.868 787.883   3
  -5  -1  13 54.8649 419.084   1
  -5  -1  14 719.894 726.721   2
  -5  -1  14 986.253 955.421   1
  -5  -1  15 777.529 1222.53   2
  -5  -1  15-377.105 605.162   1
  -5  -1  16 1658.48 1204.57   2
  -5  -1  16 1561.83 895.318   1
  -5  -1  17-13.2022 1202.34   2
  -5  -1  17-641.169 898.722   1
  -5  -1  18 133.157 624.209   1
  -5  -1  18-266.414 958.473   2
  -5  -1  19 254.297 938.091   1
  -5   0 -18 1579.86 1268.79   4
  -5   0 -17 71.7678 768.540   4
  -5   0 -16 569.863 618.244   4
  -5   0 -15 643.978 891.267   4
  -5   0 -14 3837.31 1310.38   4
  -5   0 -13 1048.29 935.351   4
  -5   0 -12 588.067 567.734   4
  -5   0 -11 1439.97 1153.88   4
  -5   0 -10 2784.15 1128.25   4
  -5   0  -9 5238.26 1450.06   4
  -5   0  -8 6670.39 1536.09   4
  -5   0  -7 7970.91 1672.23   4
  -5   0  -6 4062.46 1293.73   4
  -5   0  -5 1474.41 858.384   4
  -5   0  -4 1804.16 773.653   4
  -5   0  -3 5228.71 1245.84   4
  -5   0  -2 12606.8 1954.85   4
  -5   0  -1 13039.8 1300.29   9
  -5   0  -1 14674.8 1942.68   4
  -5   0   0 10943.3 1116.95   9
  -5   0   0 11392.2 1715.65   4
  -5   0   1 2987.06 560.361   9
  -5   0   1 6477.60 1324.29   4
  -5   0   2 1088.08 845.859   4
  -5   0   3-97.1764 525.394   4
  -5   0   3 124.691 648.714   3
  -5   0   4 1917.33 917.334   3
  -5   0   4 2029.54 774.430   4
  -5   0   5 6765.37 1522.55   3
  -5   0   5 7952.95 1418.99   4
  -5   0   6 9863.64 1989.12   3
  -5   0   6 8876.02 1565.31   4
  -5   0   6 8702.62 1320.76   1
  -5   0   7 6213.60 1259.18   1
  -5   0   7 7561.44 1403.77   4
  -5   0   7 5017.62 1539.33   3
  -5   0   8 1748.14 621.419   1
  -5   0   8 1553.11 1037.04   3
  -5   0   9-255.504 451.403   1
  -5   0   9 558.185 558.853   3
  -5   0  10 1091.97 760.054   1
  -5   0  10-1381.27 977.393   3
  -5   0  11 452.575 449.123   1
  -5   0  11 1018.16 748.759   3
  -5   0  12 943.330 772.437   3
  -5   0  12 2850.47 1081.36   1
  -5   0  13 864.503 1090.81   3
  -5   0  13 982.400 804.659   1
  -5   0  14 2873.04 1423.71   3
  -5   0  14 146.196 649.045   1
  -5   0  15-1044.61 769.425   2
  -5   0  15 1235.18 797.037   1
  -5   0  16 2770.14 1370.20   2
  -5   0  16-85.2777 483.199   1
  -5   0  17 655.554 632.279   1
  -5   0  17-1086.28 1236.40   2
  -5   0  18-730.386 891.449   1
  -5   0  18 671.419 1418.16   2
  -5   0  19-1091.02 1037.82   1
  -5   1 -17 1171.22 1270.21   4
  -5   1 -16 3761.34 1718.84   4
  -5   1 -15 667.831 742.455   4
  -5   1 -14 1004.33 883.243   4
  -5   1 -13 743.086 984.755   4
  -5   1 -12 1913.48 1207.76   4
  -5   1 -11 4900.92 1454.15   4
  -5   1 -10 3649.68 1436.62   4
  -5   1  -9 1157.76 985.546   4
  -5   1  -8 2689.19 1054.59   4
  -5   1  -7 2840.36 1108.76   4
  -5   1  -6 3973.24 1169.18   4
  -5   1  -5 9764.92 1763.58   4
  -5   1  -4 10825.5 1470.62   9
  -5   1  -4 10384.4 1723.54   4
  -5   1  -3 11072.5 1842.31   4
  -5   1  -3 9126.64 1307.33   9
  -5   1  -2 6925.90 1096.26   9
  -5   1  -2 9064.38 1566.49   4
  -5   1  -1 1279.02 564.442   9
  -5   1  -1 2477.86 993.772   4
  -5   1   0 2713.67 684.712   9
  -5   1   0 3740.08 1010.24   4
  -5   1   1 17358.6 2016.91   4
  -5   1   1 15759.1 1565.43   9
  -5   1   2 16018.4 1610.55   9
  -5   1   2 15500.4 2362.04   3
  -5   1   2 15411.8 1836.01   4
  -5   1   3 20295.5 2193.31   4
  -5   1   3 18945.9 1737.36   9
  -5   1   3 19690.0 2690.53   3
  -5   1   4 7793.60 1390.50   4
  -5   1   4 6651.24 1029.02   9
  -5   1   4 6903.65 1671.81   3
  -5   1   5 442.064 449.168   4
  -5   1   5 649.398 1011.73   3
  -5   1   6 965.996 590.316   4
  -5   1   6 3351.12 1348.85   3
  -5   1   7 2220.08 1121.78   3
  -5   1   7 2392.84 802.986   4
  -5   1   8 4503.73 1499.25   3
  -5   1   8 1638.85 602.411   4
  -5   1   9 3026.26 976.233   1
  -5   1   9 2267.33 1151.29   3
  -5   1  10 3671.87 1198.74   1
  -5   1  10 3717.05 1430.24   3
  -5   1  11 1425.31 941.254   1
  -5   1  11 4580.25 1562.76   3
  -5   1  12-788.192 762.284   3
  -5   1  12 1562.23 914.040   1
  -5   1  13 745.667 1029.08   3
  -5   1  13-255.082 612.146   1
  -5   1  14 1231.00 1296.23   3
  -5   1  14-181.899 599.655   1
  -5   1  15 914.156 945.065   3
  -5   1  15 277.799 570.235   1
  -5   1  16 352.519 673.074   3
  -5   1  16-355.619 686.135   1
  -5   1  17 1057.25 970.558   1
  -5   1  18 433.401 817.646   1
  -5   1  18-1954.55 1507.40   2
  -5   1  19 1011.20 1012.36   1
  -5   2 -17 727.948 1070.81   4
  -5   2 -16 1680.99 1073.05   4
  -5   2 -15 2056.87 1437.03   4
  -5   2 -14 3006.97 1375.81   4
  -5   2 -13-647.299 681.461   4
  -5   2 -12-717.071 909.822   4
  -5   2 -11 494.386 703.005   4
  -5   2 -10 1085.05 525.869   4
  -5   2  -9 1153.51 588.335   4
  -5   2  -8 7255.12 1673.81   4
  -5   2  -7 3609.54 951.228   9
  -5   2  -7 5136.39 1367.53   4
  -5   2  -6 2486.04 885.059   9
  -5   2  -6 4411.20 1187.94   4
  -5   2  -5 912.618 625.185   9
  -5   2  -5 626.446 783.108   4
  -5   2  -4 1891.44 774.551   4
  -5   2  -4 1595.08 695.416   9
  -5   2  -3 9588.01 1518.64   4
  -5   2  -3 9444.22 1465.13   9
  -5   2  -2 11397.9 1608.68   9
  -5   2  -2 10841.3 1636.13   4
  -5   2  -1 9680.65 1519.47   4
  -5   2  -1 6511.12 1203.58   9
  -5   2   0 3383.44 945.042   9
  -5   2   0 2412.45 794.198   4
  -5   2   0 1967.22 894.727   3
  -5   2   1 762.040 462.248   4
  -5   2   1 1009.13 865.361   3
  -5   2   1 568.704 412.538   9
  -5   2   2 43.7628 412.318   9
  -5   2   2 841.607 551.268   4
  -5   2   3-158.186 321.654   9
  -5   2   3 1086.97 595.465   4
  -5   2   3 1188.11 1108.11   3
  -5   2   4 692.221 432.988   4
  -5   2   4 648.760 579.792   3
  -5   2   4 683.107 646.436   9
  -5   2   5 2935.39 965.127   9
  -5   2   5 2900.05 1273.08   3
  -5   2   6 6614.60 1356.44   9
  -5   2   6 9156.61 1935.27   3
  -5   2   7 7183.48 1860.13   3
  -5   2   7 5960.30 1307.98   9
  -5   2   8 2112.15 1300.91   3
  -5   2   9 143.422 632.105   3
  -5   2  10 719.557 815.384   3
  -5   2  11 22.1123 1025.92   3
  -5   2  12 1386.42 916.485   1
  -5   2  12 1987.90 1259.51   3
  -5   2  13 2199.69 1211.51   3
  -5   2  13 1627.50 1135.99   1
  -5   2  14 1666.53 1099.80   3
  -5   2  14-730.190 535.035   1
  -5   2  15-384.219 722.107   3
  -5   2  15 2323.78 1143.78   1
  -5   2  16 272.074 1051.36   1
  -5   2  16 42.6952 567.772   3
  -5   2  17 528.070 854.084   1
  -5   2  17 311.385 738.761   3
  -5   2  18-702.596 846.065   1
  -5   3 -16-452.658 995.950   4
  -5   3 -15 2627.51 1401.49   4
  -5   3 -14 279.299 947.361   4
  -5   3 -13 944.421 1078.40   4
  -5   3 -12 3027.63 1515.47   4
  -5   3 -11 3454.82 1242.89   4
  -5   3 -10 2441.54 1132.43   4
  -5   3  -9-324.747 660.655   4
  -5   3  -8-266.696 544.570   4
  -5   3  -8 678.268 664.684   9
  -5   3  -7 2503.48 966.766   9
  -5   3  -7 2112.55 924.999   4
  -5   3  -6 4334.69 1273.14   9
  -5   3  -6 3683.03 1148.52   4
  -5   3  -5 5202.68 1252.67   4
  -5   3  -5 5060.88 1300.99   9
  -5   3  -4 7502.69 1476.13   9
  -5   3  -4 4973.24 1204.30   4
  -5   3  -3 4976.38 1220.79   4
  -5   3  -3 4409.69 1170.07   9
  -5   3  -2 2138.91 889.205   4
  -5   3  -2 3249.20 1017.14   9
  -5   3  -2 2054.63 896.125   3
  -5   3  -1 365.498 641.076   9
  -5   3  -1 773.448 443.741   4
  -5   3  -1-652.323 832.646   3
  -5   3   0 1436.71 762.673   3
  -5   3   0 1965.39 756.828   4
  -5   3   0 2032.28 785.228   9
  -5   3   1 8417.24 2001.20   3
  -5   3   1 7153.37 1338.06   9
  -5   3   1 7291.65 1145.45   4
  -5   3   2 15853.2 2556.34   3
  -5   3   2 12950.5 1878.77   9
  -5   3   3 12290.3 2363.03   3
  -5   3   3 11792.3 1841.28   9
  -5   3   4 1306.97 753.788   9
  -5   3   4 3590.18 1411.31   3
  -5   3   5 937.928 701.883   9
  -5   3   5 1139.62 1236.72   3
  -5   3   6 1159.67 1206.29   3
  -5   3   6 179.982 382.323   9
  -5   3   7 1090.21 743.722   9
  -5   3   7 2278.81 1267.75   3
  -5   3   8 2630.26 1197.53   3
  -5   3   8 1904.98 876.199   9
  -5   3   9 3017.04 1330.58   3
  -5   3  10 3621.53 1354.34   3
  -5   3  11 1891.56 1060.13   3
  -5   3  12 1371.63 1337.14   3
  -5   3  13 1354.74 1182.01   3
  -5   3  14-692.471 831.792   1
  -5   3  14 1978.00 1331.70   3
  -5   3  15-430.360 898.633   3
  -5   3  15-125.951 511.223   1
  -5   3  16-739.105 737.264   1
  -5   3  16 317.685 800.575   3
  -5   3  17 52.1797 775.286   1
  -5   3  17 3215.61 1594.95   3
  -5   3  18 1185.83 1142.26   3
  -5   3  18 341.919 885.284   1
  -5   4 -15-602.409 787.483   4
  -5   4 -14 210.084 703.142   4
  -5   4 -13 729.833 1001.84   4
  -5   4 -12-316.571 623.654   4
  -5   4 -11 1779.96 1166.76   4
  -5   4 -10 710.063 704.396   4
  -5   4  -9 2426.81 1083.56   9
  -5   4  -9 1721.12 810.061   4
  -5   4  -8 2235.54 1042.28   9
  -5   4  -8 3370.26 1354.11   4
  -5   4  -7 1496.93 851.645   9
  -5   4  -7 4902.14 1429.96   4
  -5   4  -6 619.118 812.903   9
  -5   4  -6 151.679 453.807   3
  -5   4  -5 894.175 793.466   4
  -5   4  -5-164.909 478.753   3
  -5   4  -5 197.523 586.559   9
  -5   4  -4 2177.26 955.142   9
  -5   4  -4 2128.62 1043.37   3
  -5   4  -4 334.827 499.560   4
  -5   4  -3 4661.26 1410.15   9
  -5   4  -3 4551.23 1109.63   4
  -5   4  -3 3330.57 1162.09   3
  -5   4  -2 7277.03 1542.09   9
  -5   4  -2 4380.69 1374.99   3
  -5   4  -2 5450.10 1159.60   4
  -5   4  -1 5112.97 1425.50   3
  -5   4  -1 5705.75 1450.53   9
  -5   4   0 4346.09 1263.24   9
  -5   4   0 4430.96 1407.96   3
  -5   4   1 657.920 967.010   3
  -5   4   1 1185.74 828.473   9
  -5   4   2 8.70316 536.573   3
  -5   4   2 1860.12 962.535   9
  -5   4   3 1398.69 994.056   3
  -5   4   3 710.014 593.789   9
  -5   4   4 1453.53 823.633   9
  -5   4   4 2498.45 1304.31   3
  -5   4   5 2211.08 1102.43   9
  -5   4   5 2864.71 1397.52   3
  -5   4   6 1719.70 1004.76   9
  -5   4   6 4759.85 1463.82   3
  -5   4   7 2194.50 1177.73   3
  -5   4   7 1508.09 1079.66   9
  -5   4   8 1595.75 1135.59   3
  -5   4   8 436.062 660.966   9
  -5   4   9 1782.31 1156.53   3
  -5   4  10 521.793 608.966   3
  -5   4  11 82.1459 767.120   3
  -5   4  12 2258.15 1408.85   3
  -5   4  13 662.143 1031.62   3
  -5   4  14 2322.89 1638.19   3
  -5   4  15-1024.90 1060.66   3
  -5   4  16 1705.46 1174.35   1
  -5   4  16 1589.67 1451.15   3
  -5   4  17 3167.74 1471.27   1
  -5   4  17 2437.42 1587.84   3
  -5   4  18 84.4137 924.966   3
  -5   5 -14 1142.13 1073.49   4
  -5   5 -13 1856.47 1246.35   4
  -5   5 -12 620.172 820.936   4
  -5   5 -11 846.878 727.395   3
  -5   5 -11 216.835 472.061   4
  -5   5 -10-594.950 837.850   4
  -5   5 -10 408.837 819.584   9
  -5   5 -10-991.519 998.015   3
  -5   5  -9 912.367 809.319   3
  -5   5  -9-128.402 711.111   9
  -5   5  -9 1151.87 934.282   4
  -5   5  -8-97.9164 507.208   4
  -5   5  -8-292.642 680.777   3
  -5   5  -8 160.772 785.766   9
  -5   5  -7 680.511 798.960   3
  -5   5  -7 330.015 541.802   4
  -5   5  -7 1456.29 655.577   9
  -5   5  -6 3529.53 1253.03   4
  -5   5  -6 2521.26 1053.26   9
  -5   5  -6 1643.43 970.691   3
  -5   5  -5 4524.21 1423.11   9
  -5   5  -5 1080.12 728.650   3
  -5   5  -4 3448.24 1199.03   9
  -5   5  -4 2686.17 1114.46   3
  -5   5  -3 1262.30 1073.58   9
  -5   5  -3 1000.33 872.538   3
  -5   5  -2-73.4347 690.262   9
  -5   5  -2 406.413 668.365   3
  -5   5  -1 831.143 733.881   9
  -5   5  -1 1069.05 903.793   3
  -5   5   0 2550.37 1129.43   3
  -5   5   0 1999.24 845.741   9
  -5   5   1 3646.91 1359.32   9
  -5   5   1 5915.25 1708.58   3
  -5   5   2 4016.67 1362.91   9
  -5   5   2 5239.86 1603.14   3
  -5   5   3 2856.00 1154.19   9
  -5   5   3 4635.67 1661.74   3
  -5   5   4 1578.17 991.273   9
  -5   5   4 853.019 680.102   3
  -5   5   5-13.1298 616.830   3
  -5   5   5 711.356 696.437   9
  -5   5   6-260.884 472.565   9
  -5   5   6 1455.70 1318.64   3
  -5   5   7 733.345 816.802   3
  -5   5   7 1982.20 1101.99   9
  -5   5   8 2850.51 1278.30   9
  -5   5   8 1707.14 1237.22   3
  -5   5   9 239.536 589.066   9
  -5   5   9 3363.47 1414.02   3
  -5   5  10 3673.15 1745.10   3
  -5   5  11 3296.15 1608.54   3
  -5   5  12-482.144 788.968   3
  -5   5  13 1824.78 1326.65   3
  -5   5  14-204.076 1066.90   3
  -5   5  15-276.807 759.440   3
  -5   5  16 1207.65 1200.88   3
  -5   6 -13-2505.94 1179.53   4
  -5   6 -12-1276.03 898.178   4
  -5   6 -11-1131.43 980.448   4
  -5   6 -11-220.946 762.033   9
  -5   6 -10 905.000 1091.81   9
  -5   6  -9 487.145 598.382   3
  -5   6  -9 789.531 830.156   9
  -5   6  -8-83.9723 587.546   3
  -5   6  -8 878.493 1016.64   9
  -5   6  -7 759.562 750.262   3
  -5   6  -7 452.912 753.778   9
  -5   6  -6 1681.17 1175.43   9
  -5   6  -6 725.001 682.084   3
  -5   6  -5-101.583 549.750   9
  -5   6  -5 155.894 516.018   3
  -5   6  -4-266.441 502.216   3
  -5   6  -4 674.262 834.350   9
  -5   6  -3 1584.18 1014.86   3
  -5   6  -3 2252.14 1235.86   9
  -5   6  -2 4236.49 1455.76   9
  -5   6  -2 5369.48 1662.07   3
  -5   6  -1 3571.99 1443.06   3
  -5   6  -1 4872.02 1560.68   9
  -5   6   0-1182.24 882.186   3
  -5   6   0 2754.73 1190.76   9
  -5   6   1 707.925 802.036   3
  -5   6   1-202.957 525.231   9
  -5   6   2-824.569 762.535   3
  -5   6   2-481.897 743.961   9
  -5   6   3 526.629 1102.85   3
  -5   6   3 177.942 627.207   9
  -5   6   4 1678.86 1198.09   3
  -5   6   4 1271.59 1023.98   9
  -5   6   5 3777.20 1430.63   3
  -5   6   5 2388.27 1236.49   9
  -5   6   6 678.858 586.968   9
  -5   6   6 2694.08 1107.54   3
  -5   6   7 1492.93 1110.80   9
  -5   6   7-1330.58 1216.30   3
  -5   6   8-775.288 852.382   3
  -5   6   8 1330.71 757.071   9
  -5   6   9-221.081 842.501   3
  -5   6   9-30.7851 629.839   9
  -5   6  10-387.471 451.832   9
  -5   6  10 704.643 1072.17   3
  -5   6  11-122.858 921.466   3
  -5   6  12 2177.67 1729.48   3
  -5   6  13 1875.47 1546.36   3
  -5   6  14 1526.72 1534.29   3
  -5   7 -10 614.992 625.089   9
  -5   7  -9 134.686 674.902   9
  -5   7  -8 1965.71 1119.86   9
  -5   7  -7 470.613 681.532   9
  -5   7  -7 903.171 826.052   3
  -5   7  -6 2311.57 1007.63   3
  -5   7  -6 939.442 812.243   9
  -5   7  -5 2210.45 1190.49   9
  -5   7  -5 889.434 788.922   3
  -5   7  -4 2683.38 1407.10   9
  -5   7  -4-107.600 524.492   3
  -5   7  -3 38.6089 677.060   9
  -5   7  -3-617.335 752.104   3
  -5   7  -2 2038.31 1355.79   9
  -5   7  -2-355.875 547.505   3
  -5   7  -1-1876.53 1137.71   3
  -5   7  -1 1692.63 1106.09   9
  -5   7   0 91.0664 665.942   3
  -5   7   0 757.860 1070.70   9
  -5   7   1 2387.16 1082.78   9
  -5   7   1-319.085 758.914   3
  -5   7   2 666.031 753.490   9
  -5   7   2 2028.70 1257.31   3
  -5   7   3 363.170 691.563   3
  -5   7   3 1934.64 1121.85   9
  -5   7   4 1066.61 921.671   9
  -5   7   4 888.942 949.720   3
  -5   7   5-31.6636 711.313   9
  -5   7   5 1426.31 1258.38   3
  -5   7   6 319.915 911.990   3
  -5   7   6 895.958 1127.63   9
  -5   7   7 1142.39 1069.11   9
  -5   7   7 1079.10 653.628   3
  -5   7   8-152.116 727.750   3
  -5   7   8 1816.82 1155.53   9
  -5   7   9 1459.31 1066.17   3
  -5   7   9 746.401 653.492   9
  -5   7  10 209.352 856.456   9
  -5   7  10 2282.69 1590.09   3
  -5   7  11-586.409 675.241   9
  -5   7  11 1410.34 1377.35   3
  -5   7  12 1320.34 1288.04   3
  -5   8  -7 1984.92 1200.85   9
  -5   8  -6 863.683 993.328   9
  -5   8  -5 666.647 696.085   9
  -5   8  -4 233.041 579.138   9
  -5   8  -4 810.203 823.747   3
  -5   8  -3 9.93150 580.111   9
  -5   8  -3-906.329 887.491   3
  -5   8  -2 453.709 755.287   3
  -5   8  -2 2028.41 1179.86   9
  -5   8  -1 4654.92 1768.72   9
  -5   8  -1-1421.60 1127.09   3
  -5   8   0-222.457 940.254   9
  -5   8   0-1052.81 857.904   3
  -5   8   1-463.285 683.900   9
  -5   8   1-242.013 541.974   3
  -5   8   2-676.807 813.076   9
  -5   8   2-1186.92 788.316   3
  -5   8   3 466.237 752.856   9
  -5   8   3 1704.36 908.376   3
  -5   8   4 1863.49 1164.31   9
  -5   8   4 965.183 857.207   3
  -5   8   5 858.806 640.780   9
  -5   8   5 3948.19 1510.88   3
  -5   8   6 187.322 972.663   9
  -5   8   6 632.493 871.063   3
  -5   8   7 973.415 1235.67   3
  -5   8   7-618.460 920.633   9
  -5   8   8 638.945 859.689   3
  -5   8   8 454.919 910.340   9
  -5   8   9-175.091 766.714   9
  -5   8   9 2577.91 1662.30   3
  -5   8  10-286.710 693.959   9
  -5   8  11 1645.19 1409.06   9
  -5   8  12-105.314 735.029   9
  -5   9  -2-491.792 761.332   3
  -5   9  -2 354.991 775.809   9
  -5   9  -1 1054.68 921.668   9
  -5   9  -1-1029.85 917.059   3
  -5   9   0-878.829 979.199   3
  -5   9   0 1735.80 1271.19   9
  -5   9   1 793.393 809.017   3
  -5   9   1 821.418 1114.23   9
  -5   9   2 1261.08 1324.10   9
  -5   9   2 2356.16 1336.59   3
  -5   9   3 758.363 1045.73   3
  -5   9   3 99.9689 754.277   9
  -5   9   4-97.6029 651.339   9
  -5   9   4 847.142 946.383   3
  -5   9   5-3.94772 866.104   3
  -5   9   5-860.549 902.239   9
  -5   9   6 467.370 829.801   9
  -5   9   7 185.417 802.759   9
  -5   9   8 949.047 1065.21   9
  -4 -12  -8-269.660 711.175  10
  -4 -12  -7-1050.14 1104.35  10
  -4 -12  -6 379.462 712.713   4
  -4 -12  -6 488.924 675.369  10
  -4 -12  -5 100.040 562.104   4
  -4 -12  -4 994.221 998.192   4
  -4 -12  -3-1289.38 995.030   4
  -4 -12  -2 1090.30 1006.35   4
  -4 -12  -1 2190.07 1400.90   4
  -4 -12   0 1989.89 942.422   2
  -4 -12   1-618.269 1145.78   2
  -4 -12   2 1076.05 999.022   2
  -4 -12   3 3067.53 1551.34   2
  -4 -11 -11 274.349 983.004  10
  -4 -11 -10 1601.91 1016.52  10
  -4 -11  -9 867.431 792.743   4
  -4 -11  -9 2328.79 1384.76  10
  -4 -11  -8 829.998 862.674  10
  -4 -11  -8 1815.57 1284.66   4
  -4 -11  -7 265.958 664.579   4
  -4 -11  -7 1996.22 1149.43  10
  -4 -11  -6 1494.90 1087.34   4
  -4 -11  -6 573.232 1006.39  10
  -4 -11  -5-281.066 647.511   4
  -4 -11  -5 1478.85 1150.10  10
  -4 -11  -4-34.4958 782.501  10
  -4 -11  -4-1762.60 1084.56   4
  -4 -11  -3-1300.25 964.666   4
  -4 -11  -2 172.244 648.192   4
  -4 -11  -1 1836.95 1005.98   2
  -4 -11  -1-722.543 916.993   4
  -4 -11   0 2087.22 1566.24   2
  -4 -11   1 468.942 546.893   2
  -4 -11   2-774.764 811.888   2
  -4 -11   3-618.751 1167.41   2
  -4 -11   4 3616.39 1694.75   2
  -4 -11   5 3134.77 1592.21   2
  -4 -11   6 1768.68 1086.83   2
  -4 -10 -13 1159.14 1007.11  10
  -4 -10 -12 24.0498 642.740   4
  -4 -10 -12 666.041 1013.20  10
  -4 -10 -11-1121.38 860.944   4
  -4 -10 -11 2165.75 1380.70  10
  -4 -10 -10 1935.58 1222.49   4
  -4 -10 -10 2023.31 1318.04  10
  -4 -10  -9 470.801 922.913  10
  -4 -10  -9-201.414 658.565   4
  -4 -10  -8-5.20911 725.733   4
  -4 -10  -8 623.107 767.748  10
  -4 -10  -7 3037.26 1379.23   4
  -4 -10  -7 2101.62 1278.75  10
  -4 -10  -6 1630.82 1134.93   4
  -4 -10  -6 2756.99 1310.93  10
  -4 -10  -5 1751.76 940.027   4
  -4 -10  -5 3130.22 1446.37  10
  -4 -10  -4 3822.41 1417.24  10
  -4 -10  -4 2079.15 1148.07   4
  -4 -10  -3 816.960 1068.24   4
  -4 -10  -3 429.249 626.061  10
  -4 -10  -2-200.933 574.084  10
  -4 -10  -2-65.2392 653.222   2
  -4 -10  -2-1143.32 802.605   4
  -4 -10  -1 831.845 705.455   2
  -4 -10   0 1553.28 1059.08   2
  -4 -10   1 3305.17 1431.75   2
  -4 -10   2 4063.61 1607.19   2
  -4 -10   3 3770.42 1570.10   2
  -4 -10   4-1886.31 1253.73   2
  -4 -10   5 765.904 1259.91   2
  -4 -10   6-290.267 937.698   2
  -4 -10   7 1948.53 1203.83   2
  -4 -10   8 151.389 777.304   2
  -4 -10   9 3398.97 1883.42   2
  -4  -9 -15 725.017 737.172   4
  -4  -9 -15-208.560 631.494  10
  -4  -9 -14 1154.74 902.306   4
  -4  -9 -14 2475.31 1534.00  10
  -4  -9 -13 534.090 1120.00  10
  -4  -9 -13-179.061 573.759   4
  -4  -9 -12 349.328 842.568  10
  -4  -9 -12-861.299 812.414   4
  -4  -9 -11 403.194 1001.72  10
  -4  -9 -11 849.786 942.869   4
  -4  -9 -10 463.646 630.430   4
  -4  -9 -10 1652.77 1195.02  10
  -4  -9  -9 2905.08 1250.31  10
  -4  -9  -9 2564.47 1178.44   4
  -4  -9  -8 3959.32 1405.76   4
  -4  -9  -8 4887.30 1688.57  10
  -4  -9  -7 2347.92 1088.34   4
  -4  -9  -7 2590.02 1250.26  10
  -4  -9  -6 1767.69 827.186  10
  -4  -9  -6 1622.03 1045.85   4
  -4  -9  -5 751.980 508.470  10
  -4  -9  -5 1533.15 976.466   4
  -4  -9  -4 3921.35 1384.91   4
  -4  -9  -4 2591.54 1128.75  10
  -4  -9  -3 6113.32 1547.84   2
  -4  -9  -3 4860.08 1497.42  10
  -4  -9  -3 4823.64 1573.78   4
  -4  -9  -2 5303.43 1491.98   4
  -4  -9  -2 3978.33 1244.64   2
  -4  -9  -2 6999.60 1750.72  10
  -4  -9  -1 4928.86 1410.89   2
  -4  -9  -1 4917.54 1372.33  10
  -4  -9   0 2675.55 1040.23   2
  -4  -9   1 193.079 717.402   2
  -4  -9   2 1278.77 1088.79   2
  -4  -9   3-113.450 589.540   2
  -4  -9   4 234.530 792.532   2
  -4  -9   5 3525.44 1691.10   2
  -4  -9   6 2444.63 1284.89   2
  -4  -9   7-345.231 914.850   2
  -4  -9   8-1631.10 1323.59   2
  -4  -9   9-1305.32 888.726   2
  -4  -9  10 1241.16 1443.21   2
  -4  -9  11 2583.73 1919.47   2
  -4  -8 -18 1793.13 1199.40   4
  -4  -8 -17-180.521 564.778   4
  -4  -8 -16 1531.31 983.797   4
  -4  -8 -15 1264.94 1047.79   4
  -4  -8 -14 1167.37 781.175   4
  -4  -8 -13 465.454 684.698   4
  -4  -8 -12 2325.91 1106.92   4
  -4  -8 -11 776.712 846.030   4
  -4  -8 -10-238.570 613.212   4
  -4  -8  -9-244.969 630.092   4
  -4  -8  -8 2276.02 1169.01   4
  -4  -8  -7 2217.26 1150.43   4
  -4  -8  -6 8513.82 1930.05   4
  -4  -8  -5 10136.9 2128.99   4
  -4  -8  -4 4134.28 1374.71   4
  -4  -8  -4 5052.03 1211.01   2
  -4  -8  -4 7907.37 1838.96  10
  -4  -8  -3 2378.25 1053.77  10
  -4  -8  -3 2693.37 972.107   2
  -4  -8  -3 1466.30 935.409   4
  -4  -8  -2 949.462 1002.66  10
  -4  -8  -2-31.4358 727.042   4
  -4  -8  -2 238.331 539.962   2
  -4  -8  -1 2241.84 865.284  10
  -4  -8  -1 2879.76 1298.19   2
  -4  -8   0 5410.73 1307.58  10
  -4  -8   0 4313.69 1366.96   2
  -4  -8   1 7226.62 1670.66   2
  -4  -8   2 5927.17 1532.23   2
  -4  -8   3 1220.79 760.882   2
  -4  -8   4 1228.75 1080.09   2
  -4  -8   5 2785.83 1523.37   2
  -4  -8   6 1784.45 1229.67   2
  -4  -8   7 5328.68 1769.35   2
  -4  -8   8 4806.19 1776.30   2
  -4  -8   9 3788.78 1755.00   2
  -4  -8  10 2704.09 1699.93   2
  -4  -8  11 2717.27 1601.22   2
  -4  -8  12 1835.29 1480.51   2
  -4  -8  13-581.498 880.812   2
  -4  -7 -19 711.591 860.067   4
  -4  -7 -18 624.414 993.690   4
  -4  -7 -17-41.2906 654.689   4
  -4  -7 -16 1861.17 1174.46   4
  -4  -7 -15 1755.87 1189.84   4
  -4  -7 -14 1089.05 1018.30   4
  -4  -7 -13 688.301 754.504   4
  -4  -7 -12 1014.58 995.200   4
  -4  -7 -11 1522.85 1040.64   4
  -4  -7 -10 2898.75 1175.31   4
  -4  -7  -9 4259.98 1389.00   4
  -4  -7  -8 6365.71 1610.16   4
  -4  -7  -7 6085.17 1649.97   4
  -4  -7  -6 2115.49 1136.24   4
  -4  -7  -5 807.173 923.794   4
  -4  -7  -4 4909.74 1147.17   2
  -4  -7  -4 3556.53 1294.54   4
  -4  -7  -3 9446.02 1576.15   2
  -4  -7  -3 9416.87 2087.63   4
  -4  -7  -2 17690.0 2202.87   2
  -4  -7  -2 16882.5 2519.33   4
  -4  -7  -1 16935.5 2177.00   2
  -4  -7   0 7770.65 1531.21   2
  -4  -7   0 8687.01 1572.65  10
  -4  -7   1 160.050 450.053  10
  -4  -7   1 554.264 573.527   2
  -4  -7   2 2169.16 1082.67   2
  -4  -7   2 791.192 533.982  10
  -4  -7   3 5474.20 1556.49   2
  -4  -7   4 8988.68 1863.72   2
  -4  -7   5 9142.55 2017.74   2
  -4  -7   6 6094.51 1585.98   2
  -4  -7   7 491.741 534.763   2
  -4  -7   8-290.592 948.636   2
  -4  -7   9-577.915 697.580   1
  -4  -7   9 540.896 754.721   2
  -4  -7  10 1001.43 784.725   1
  -4  -7  10 3151.21 1570.45   2
  -4  -7  11 2187.72 1049.27   1
  -4  -7  11 812.908 1041.13   2
  -4  -7  12 4242.91 1815.22   2
  -4  -7  12 2470.70 1245.58   1
  -4  -7  13 416.187 1451.75   2
  -4  -7  13 1728.89 1045.94   1
  -4  -7  14-37.9885 787.521   2
  -4  -7  14 1279.84 1066.84   1
  -4  -7  15 2324.76 1529.76   2
  -4  -7  15 1879.82 1432.16   1
  -4  -7  16 1194.64 1199.18   1
  -4  -6 -20-871.520 787.902   4
  -4  -6 -19 432.844 855.139   4
  -4  -6 -18 113.469 722.091   4
  -4  -6 -17 285.528 534.360   4
  -4  -6 -16 74.0353 483.980   4
  -4  -6 -15 805.984 985.725   4
  -4  -6 -14 1128.96 778.332   4
  -4  -6 -13 2706.82 1103.03   4
  -4  -6 -12 1098.16 747.724   4
  -4  -6 -11 4009.79 1307.13   4
  -4  -6 -10 3049.11 1339.41   4
  -4  -6  -9-289.750 580.237   4
  -4  -6  -8 2577.69 954.686   4
  -4  -6  -7 13186.7 2281.62   4
  -4  -6  -6 20108.8 2746.02   4
  -4  -6  -5 7100.28 1145.85   2
  -4  -6  -5 6582.32 1660.78   4
  -4  -6  -4 4535.01 1256.71   4
  -4  -6  -4 6406.81 1129.85   2
  -4  -6  -3 981.815 662.908   4
  -4  -6  -3 1368.11 638.030   2
  -4  -6  -2 768.336 750.719   4
  -4  -6  -2-112.005 461.085   2
  -4  -6  -1 2568.52 1026.63   2
  -4  -6   0 5718.63 1374.43   2
  -4  -6   1 9697.50 1641.87   2
  -4  -6   2 14742.6 2068.22   2
  -4  -6   3 15081.8 2217.44   2
  -4  -6   3 13519.0 1595.87  10
  -4  -6   4 5869.42 1452.30   2
  -4  -6   5 856.401 758.388   2
  -4  -6   6 3086.41 998.132   1
  -4  -6   6 904.839 726.156   2
  -4  -6   7 4729.29 1205.27   1
  -4  -6   7 6251.97 1613.81   2
  -4  -6   8 5712.21 1573.14   2
  -4  -6   8 3671.05 1101.67   1
  -4  -6   9 2675.37 1187.65   2
  -4  -6   9 2605.32 1065.71   1
  -4  -6  10 3850.78 1536.82   2
  -4  -6  10 2017.56 976.354   1
  -4  -6  11 2006.99 1026.60   1
  -4  -6  11 485.850 696.072   2
  -4  -6  12 209.760 565.372   1
  -4  -6  12 298.512 881.614   2
  -4  -6  13-767.711 1124.04   2
  -4  -6  13 3038.85 1336.36   1
  -4  -6  14 835.720 804.671   1
  -4  -6  14-1194.28 1078.83   2
  -4  -6  15 281.242 742.395   2
  -4  -6  15 1269.41 902.488   1
  -4  -6  16 577.195 645.681   1
  -4  -6  16 534.795 987.153   2
  -4  -6  17 372.987 793.651   1
  -4  -5 -20-25.4465 737.991   4
  -4  -5 -19 42.0792 775.145   4
  -4  -5 -18-1021.80 927.849   4
  -4  -5 -17 1397.06 879.362   4
  -4  -5 -16 2373.22 1260.42   4
  -4  -5 -15 2693.31 1178.26   4
  -4  -5 -14 817.465 787.943   4
  -4  -5 -13 1241.68 1033.14   4
  -4  -5 -12 1647.41 995.720   4
  -4  -5 -11 4806.62 1485.93   4
  -4  -5 -10 8946.21 1746.32   4
  -4  -5  -9 10872.1 2058.83   4
  -4  -5  -8 9195.46 1703.59   4
  -4  -5  -7 4814.08 1352.72   4
  -4  -5  -6 2361.62 1157.34   4
  -4  -5  -5 1793.74 986.741   4
  -4  -5  -5 598.923 395.770   2
  -4  -5  -4 9427.61 1153.63   2
  -4  -5  -4 11057.3 1892.23   4
  -4  -5  -3 45842.4 3811.55   4
  -4  -5  -3 37378.7 2578.31   2
  -4  -5  -2 47327.9 3077.27   2
  -4  -5  -2 51687.9 4023.59   4
  -4  -5  -1 30549.7 3144.45   4
  -4  -5  -1 29476.4 2435.54   2
  -4  -5   0 6437.66 1221.23   2
  -4  -5   1-98.4591 616.633   2
  -4  -5   2 7376.13 1258.35   2
  -4  -5   3 18159.3 2168.36   2
  -4  -5   4 12818.2 1495.27   1
  -4  -5   4 12654.1 1826.61   2
  -4  -5   5 8674.88 1605.32   2
  -4  -5   5 7336.60 1237.38   1
  -4  -5   6 5040.98 1243.37   2
  -4  -5   6 4893.06 927.090   3
  -4  -5   6 5285.13 1176.17   1
  -4  -5   7 2742.25 1142.34   2
  -4  -5   7 1105.12 662.435   1
  -4  -5   8 410.423 442.775   1
  -4  -5   8-550.609 1060.99   2
  -4  -5   9 1208.76 770.317   1
  -4  -5   9 138.043 765.747   2
  -4  -5  10 1164.68 731.179   1
  -4  -5  10 2353.47 1140.86   2
  -4  -5  11 2319.94 977.020   1
  -4  -5  11 652.868 666.213   2
  -4  -5  12 1675.68 1051.23   2
  -4  -5  12 1450.11 1017.27   1
  -4  -5  13 3493.67 1319.75   1
  -4  -5  13-1654.10 958.878   2
  -4  -5  14-171.045 732.145   2
  -4  -5  14 0.95036 533.402   1
  -4  -5  15-153.956 851.797   2
  -4  -5  15 1064.80 928.209   1
  -4  -5  16 536.065 848.795   1
  -4  -5  16 1258.52 1102.48   2
  -4  -5  17-933.888 1186.66   2
  -4  -5  17-326.527 701.924   1
  -4  -5  18 1885.51 1408.67   1
  -4  -4 -20 1705.40 976.651   4
  -4  -4 -19-195.263 696.595   4
  -4  -4 -18-459.549 684.252   4
  -4  -4 -17-543.782 915.332   4
  -4  -4 -16 824.237 876.268   4
  -4  -4 -15 2116.84 1225.18   4
  -4  -4 -14 2133.34 1169.70   4
  -4  -4 -13 3711.00 1356.34   4
  -4  -4 -12 2884.23 1134.33   4
  -4  -4 -11 5124.85 1295.41   4
  -4  -4 -10 936.450 966.606   4
  -4  -4  -9-1616.83 944.867   4
  -4  -4  -8 3799.30 1042.95   4
  -4  -4  -7 14723.3 2172.92   4
  -4  -4  -6 23146.9 2794.07   4
  -4  -4  -5 22701.1 2644.09   4
  -4  -4  -5 17964.9 1304.42   2
  -4  -4  -4 19364.9 1515.17   2
  -4  -4  -4 24551.1 2673.03   4
  -4  -4  -3 121.020 298.911   2
  -4  -4  -3 58.9144 744.972   4
  -4  -4  -2 1462.44 608.857   2
  -4  -4  -2 803.948 720.891   4
  -4  -4  -1 5399.07 1280.43   4
  -4  -4  -1 6019.99 956.244   2
  -4  -4   0 15361.9 1623.90   2
  -4  -4   1 25870.2 2290.21   2
  -4  -4   2 28350.5 2494.91   2
  -4  -4   3 13632.3 1287.57   1
  -4  -4   3 15007.0 1885.52   2
  -4  -4   4 1641.19 871.807   2
  -4  -4   4 3289.53 723.250   1
  -4  -4   5 669.363 401.753   1
  -4  -4   5-87.1143 555.440   2
  -4  -4   6 6179.83 1559.65   2
  -4  -4   6 3267.12 809.709   1
  -4  -4   6 3720.80 918.420   3
  -4  -4   7 9081.62 1321.31   3
  -4  -4   7 7580.79 1287.16   1
  -4  -4   7 8350.46 1827.96   2
  -4  -4   8 9876.52 1540.69   1
  -4  -4   8 10727.5 1986.16   2
  -4  -4   8 9050.09 1268.26   3
  -4  -4   9 6937.73 1382.75   1
  -4  -4   9 7128.10 1730.71   2
  -4  -4  10 4144.80 1374.90   2
  -4  -4  10 3896.96 1202.47   1
  -4  -4  11 2413.70 1256.07   2
  -4  -4  11 3227.62 1104.36   1
  -4  -4  12-348.998 716.532   1
  -4  -4  12 1417.22 1173.22   2
  -4  -4  13 1178.25 1495.78   2
  -4  -4  13 241.932 614.383   1
  -4  -4  14 466.358 593.522   1
  -4  -4  14 1325.81 1362.34   2
  -4  -4  15 1112.07 861.406   1
  -4  -4  15 1740.26 1035.68   2
  -4  -4  16 2162.98 1297.69   2
  -4  -4  16-8.38446 612.368   1
  -4  -4  17 552.465 700.926   1
  -4  -4  17-2882.27 1422.77   2
  -4  -4  18-486.502 703.217   2
  -4  -4  18 1100.47 986.655   1
  -4  -4  19 1349.08 1211.96   1
  -4  -3 -20-884.746 934.710   4
  -4  -3 -19 556.654 826.627   4
  -4  -3 -18 1603.74 1058.49   4
  -4  -3 -17 774.798 831.533   4
  -4  -3 -16 2173.63 1030.68   4
  -4  -3 -15 2295.90 1092.48   4
  -4  -3 -14 1860.36 922.401   4
  -4  -3 -13 512.699 676.065   4
  -4  -3 -12 3258.83 1346.14   4
  -4  -3 -11 5625.36 1493.58   4
  -4  -3 -10 14388.9 2258.82   4
  -4  -3  -9 18113.6 2454.17   4
  -4  -3  -8 11830.9 1828.35   4
  -4  -3  -7 2935.08 1022.92   4
  -4  -3  -6-850.002 664.147   4
  -4  -3  -5 9266.29 1793.30   4
  -4  -3  -5 5397.79 609.570   2
  -4  -3  -4 27859.5 2719.22   4
  -4  -3  -4 24480.8 1512.93   2
  -4  -3  -3 31107.3 2917.81   4
  -4  -3  -3 27710.1 1760.06   2
  -4  -3  -2 30807.0 2043.24   2
  -4  -3  -2 31639.3 3087.46   4
  -4  -3  -1 27298.7 1990.92   2
  -4  -3  -1 24869.6 2683.69   4
  -4  -3   0 10851.7 1643.45   4
  -4  -3   0 10069.2 1282.09   2
  -4  -3   1 215.086 148.788   1
  -4  -3   1 832.435 568.480   2
  -4  -3   2 6163.63 696.852   1
  -4  -3   2 7745.13 1223.78   2
  -4  -3   3 21157.1 2141.34   2
  -4  -3   3 19824.1 1442.48   1
  -4  -3   4 22674.9 2295.84   2
  -4  -3   4 20764.6 1618.47   1
  -4  -3   5 27975.4 2048.55   1
  -4  -3   5 30460.7 2794.19   2
  -4  -3   6 12561.9 1639.42   3
  -4  -3   6 12958.7 1491.93   1
  -4  -3   6 13365.4 2022.95   2
  -4  -3   7 2005.15 965.384   2
  -4  -3   7 1444.45 631.114   3
  -4  -3   7 2742.04 678.744   1
  -4  -3   8 533.991 511.575   3
  -4  -3   8 44.6723 609.208   2
  -4  -3   8 995.842 629.322   1
  -4  -3   9 3025.33 940.623   1
  -4  -3   9 3165.66 892.496   3
  -4  -3   9 3867.22 1260.09   2
  -4  -3  10 4492.98 1338.36   2
  -4  -3  10 4710.54 1167.28   1
  -4  -3  10 4426.17 1003.63   3
  -4  -3  11 2038.04 855.013   1
  -4  -3  11 6233.83 1698.07   2
  -4  -3  12 2007.67 1311.44   2
  -4  -3  12 1989.06 992.369   1
  -4  -3  13-79.0229 706.402   2
  -4  -3  13 328.264 550.456   1
  -4  -3  14 2611.67 1104.88   1
  -4  -3  14 1349.92 1089.01   2
  -4  -3  15 445.707 900.894   2
  -4  -3  15 104.225 778.358   1
  -4  -3  16 1796.47 1096.19   2
  -4  -3  16 455.029 827.705   1
  -4  -3  17 2197.83 1465.92   2
  -4  -3  17-277.032 694.974   1
  -4  -3  18 309.753 583.085   1
  -4  -3  18-87.3062 703.771   2
  -4  -3  19 2430.42 1397.85   1
  -4  -3  19-398.233 940.326   2
  -4  -3  20 135.629 641.335   1
  -4  -2 -20 2974.27 1528.28   4
  -4  -2 -19-1034.58 837.308   4
  -4  -2 -18 59.4121 765.687   4
  -4  -2 -17 534.091 772.680   4
  -4  -2 -16-222.221 590.288   4
  -4  -2 -15 1153.33 945.624   4
  -4  -2 -14 5838.15 1581.75   4
  -4  -2 -13 6504.68 1562.28   4
  -4  -2 -12 7487.17 1588.42   4
  -4  -2 -11 5839.34 1475.03   4
  -4  -2 -10 2390.48 1120.00   4
  -4  -2  -9 325.182 721.540   4
  -4  -2  -8 10267.4 1817.64   4
  -4  -2  -7 24398.1 2661.09   4
  -4  -2  -6 38025.7 3310.34   4
  -4  -2  -5 32749.3 1450.35   2
  -4  -2  -5 33800.2 3139.42   4
  -4  -2  -4 13637.6 1031.88   2
  -4  -2  -4 15183.9 2033.16   4
  -4  -2  -4 10472.4 828.579   7
  -4  -2  -3 670.123 780.856   4
  -4  -2  -3-22.5454 202.031   2
  -4  -2  -2 536.852 333.505   2
  -4  -2  -2 624.557 768.812   4
  -4  -2  -1 36048.8 2979.35   4
  -4  -2  -1 31516.2 2107.58   2
  -4  -2   0 45651.2 2740.90   2
  -4  -2   0 42347.2 3376.80   4
  -4  -2   1 31858.5 1393.22   1
  -4  -2   1 39306.8 3017.60   4
  -4  -2   1 36742.0 2529.19   2
  -4  -2   2 22391.8 1303.54   1
  -4  -2   2 23846.4 2120.56   2
  -4  -2   3 7675.86 851.942   1
  -4  -2   3 8085.09 1298.43   2
  -4  -2   4 667.095 412.347   1
  -4  -2   4 21.8991 459.221   2
  -4  -2   5 1046.37 506.646   2
  -4  -2   5 1528.53 408.755   1
  -4  -2   5 1720.94 687.411   3
  -4  -2   6 8008.43 1145.18   1
  -4  -2   6 7316.32 1478.48   2
  -4  -2   6 8337.23 1489.70   3
  -4  -2   7 8305.55 1435.74   3
  -4  -2   7 9325.38 1275.71   1
  -4  -2   7 11863.8 1924.11   2
  -4  -2   8 9874.39 1509.15   1
  -4  -2   8 8264.25 1632.35   2
  -4  -2   8 10411.7 1670.29   3
  -4  -2   9 6948.32 1323.26   3
  -4  -2   9 8948.24 1511.35   1
  -4  -2   9 10149.2 1774.36   2
  -4  -2  10 3285.71 919.208   3
  -4  -2  10 3302.49 1209.99   2
  -4  -2  10 4297.87 1096.77   1
  -4  -2  11 1081.78 709.194   3
  -4  -2  11 1867.70 953.788   1
  -4  -2  11-323.843 602.880   2
  -4  -2  12 1306.64 1067.94   2
  -4  -2  12 1616.31 768.878   3
  -4  -2  12-192.059 570.724   1
  -4  -2  13 2372.33 1037.43   1
  -4  -2  13 1687.64 1052.92   2
  -4  -2  14 2812.01 1176.73   1
  -4  -2  14 3201.11 1551.84   2
  -4  -2  15 2075.77 1297.84   2
  -4  -2  15 2215.59 1146.65   1
  -4  -2  16 1885.30 1096.60   1
  -4  -2  16 1482.15 1294.29   2
  -4  -2  17 1833.96 1100.35   1
  -4  -2  17 1786.35 1023.77   2
  -4  -2  18-561.264 785.418   2
  -4  -2  18 2214.38 1255.10   1
  -4  -2  19-654.178 786.518   1
  -4  -2  19-213.754 894.249   2
  -4  -2  20 263.665 830.530   1
  -4  -1 -20 1872.67 1290.82   4
  -4  -1 -19 2118.57 1360.66   4
  -4  -1 -18-1440.90 1081.66   4
  -4  -1 -17 938.331 956.443   4
  -4  -1 -16 1502.91 942.996   4
  -4  -1 -15 194.899 670.536   4
  -4  -1 -14 2156.57 1011.44   4
  -4  -1 -13 945.157 926.794   4
  -4  -1 -12 3224.24 1176.56   4
  -4  -1 -11 6836.47 1661.45   4
  -4  -1 -10 14007.8 2164.51   4
  -4  -1  -9 12452.0 1966.39   4
  -4  -1  -8 9950.96 1840.74   4
  -4  -1  -7 2008.35 1073.07   4
  -4  -1  -6 1128.78 748.696   4
  -4  -1  -5 4323.87 1214.62   4
  -4  -1  -4 10149.7 676.893   1
  -4  -1  -4 10765.6 1604.50   4
  -4  -1  -3 25982.6 2613.20   4
  -4  -1  -3 20714.5 920.606   1
  -4  -1  -2 56869.6 3584.50   4
  -4  -1  -2 36661.2 1375.07   1
  -4  -1  -1 21891.0 1138.92   1
  -4  -1  -1 29537.3 2636.41   4
  -4  -1   0 8117.29 1390.35   4
  -4  -1   1 39.1112 498.509   4
  -4  -1   2 9472.25 899.844   1
  -4  -1   2 8075.63 516.919   9
  -4  -1   2 9111.73 1442.39   4
  -4  -1   3 21459.5 1514.93   1
  -4  -1   3 17572.0 792.194   9
  -4  -1   4 35310.2 2910.25   3
  -4  -1   4 30541.9 1959.52   1
  -4  -1   5 27193.4 1967.85   1
  -4  -1   5 29214.9 2654.05   3
  -4  -1   6 10910.7 1695.00   3
  -4  -1   6 9904.51 1300.95   1
  -4  -1   7 2770.90 1090.52   3
  -4  -1   7 3013.07 820.415   1
  -4  -1   8 964.858 596.040   1
  -4  -1   8 1116.82 817.249   3
  -4  -1   9 3434.98 1044.14   1
  -4  -1   9 3104.01 908.424   3
  -4  -1  10 9192.44 1618.07   1
  -4  -1  10 5378.88 1333.16   3
  -4  -1  11 6434.49 1489.63   1
  -4  -1  11 5287.94 1338.41   3
  -4  -1  12 3907.86 1338.74   2
  -4  -1  12 2969.52 1163.76   3
  -4  -1  12 3534.06 1206.34   1
  -4  -1  13 1168.58 963.390   3
  -4  -1  13 1692.57 969.428   1
  -4  -1  13 2748.03 1239.14   2
  -4  -1  14 1298.12 1023.01   1
  -4  -1  14 1114.78 1071.69   2
  -4  -1  14-275.899 558.152   3
  -4  -1  15-663.195 817.278   1
  -4  -1  15-473.964 723.634   2
  -4  -1  16 1143.77 1043.58   2
  -4  -1  16-127.945 756.539   1
  -4  -1  17 1830.29 1237.41   1
  -4  -1  17 1199.84 971.351   2
  -4  -1  18 1116.84 1192.34   2
  -4  -1  18 1937.00 1220.57   1
  -4  -1  19 695.828 1149.28   1
  -4  -1  19-700.469 931.589   2
  -4  -1  20-1869.00 1273.32   1
  -4  -1  20 517.896 947.539   2
  -4   0 -20 310.045 1012.04   4
  -4   0 -19 1162.53 1231.79   4
  -4   0 -18 366.878 1028.19   4
  -4   0 -17 778.170 886.828   4
  -4   0 -16 801.011 745.471   4
  -4   0 -15 3250.97 1317.06   4
  -4   0 -14 3825.43 1251.63   4
  -4   0 -13 5531.72 1600.83   4
  -4   0 -12 3867.02 1236.14   4
  -4   0 -11 4032.99 1260.25   4
  -4   0 -10 1560.98 882.100   4
  -4   0  -9 493.792 870.347   4
  -4   0  -8 12069.3 1886.30   4
  -4   0  -7 24437.1 2547.53   4
  -4   0  -6 39271.2 3199.06   4
  -4   0  -5 29510.2 2735.63   4
  -4   0  -4 10266.3 1629.32   4
  -4   0  -3 204.065 412.199   4
  -4   0  -3 66.5173 263.148   9
  -4   0  -2 5853.35 1218.82   4
  -4   0  -2 6704.34 860.941   9
  -4   0  -1 41786.5 2231.79   9
  -4   0  -1 43053.8 3097.66   4
  -4   0   0 26316.2 2344.76   4
  -4   0   0 23715.6 1581.08   9
  -4   0   1 48736.7 3136.05   4
  -4   0   1 44356.0 2202.24   9
  -4   0   2 30173.7 1745.21   9
  -4   0   2 31893.7 2470.85   4
  -4   0   3 8366.27 894.518   9
  -4   0   3 9334.97 1338.85   4
  -4   0   3 8921.80 1541.75   3
  -4   0   4 233.164 221.878   9
  -4   0   4-588.839 510.976   4
  -4   0   5 7613.82 1470.00   3
  -4   0   6 15135.4 2108.18   3
  -4   0   7 17151.8 2229.32   3
  -4   0   7 17366.7 1846.09   1
  -4   0   8 13010.4 1981.59   3
  -4   0   8 10786.2 1560.00   1
  -4   0   9 5066.09 1168.98   1
  -4   0   9 4472.19 1196.79   3
  -4   0  10 1398.26 797.995   3
  -4   0  10 2544.73 1015.56   1
  -4   0  11 952.285 856.369   3
  -4   0  11 1148.53 662.450   1
  -4   0  12 1425.17 825.344   1
  -4   0  12 1624.45 923.145   3
  -4   0  13 1826.88 772.324   1
  -4   0  13 2880.13 1288.33   3
  -4   0  14 1901.26 1182.47   1
  -4   0  14 1208.38 591.248   3
  -4   0  15 2161.75 1187.36   1
  -4   0  15-171.772 653.991   2
  -4   0  15 3058.26 1245.14   3
  -4   0  16 286.909 718.063   2
  -4   0  16-506.339 613.332   1
  -4   0  17 1273.60 1150.67   2
  -4   0  17 1192.35 1045.86   1
  -4   0  18 1068.71 1048.33   2
  -4   0  18 3476.46 1613.75   1
  -4   0  19-628.299 764.864   2
  -4   0  19 1645.36 1238.19   1
  -4   0  20 21.7546 1125.77   2
  -4   0  20 912.641 931.992   1
  -4   1 -19 1345.55 1208.16   4
  -4   1 -18 907.547 984.021   4
  -4   1 -17 986.126 1099.23   4
  -4   1 -16 1516.94 1096.73   4
  -4   1 -15 818.226 705.205   4
  -4   1 -14 460.065 736.314   4
  -4   1 -13-1081.96 762.611   4
  -4   1 -12 1644.65 1003.45   4
  -4   1 -11 4371.41 1210.71   4
  -4   1 -10 10342.5 1837.94   4
  -4   1  -9 10714.8 1953.07   4
  -4   1  -8 9464.01 1653.00   4
  -4   1  -7 1522.38 928.695   4
  -4   1  -6 596.082 881.351   4
  -4   1  -6 1177.85 609.803   9
  -4   1  -5 6856.82 1164.64   9
  -4   1  -5 8479.84 1524.30   4
  -4   1  -4 23711.6 2037.62   9
  -4   1  -4 25514.7 2359.39   4
  -4   1  -3 35322.2 2856.34   4
  -4   1  -3 36008.6 2490.39   9
  -4   1  -2 27264.4 2365.30   4
  -4   1  -2 26535.6 2061.92   9
  -4   1  -1 7464.09 1203.22   4
  -4   1  -1 5954.39 949.771   9
  -4   1   0 2567.07 621.194   9
  -4   1   0 1448.05 568.113   4
  -4   1   1 836.906 642.833   4
  -4   1   1 976.467 389.251   9
  -4   1   2 6266.10 1410.36   3
  -4   1   2 5254.60 956.083   9
  -4   1   2 7119.17 1190.99   4
  -4   1   3 14506.8 2063.13   3
  -4   1   3 13679.7 1451.76   9
  -4   1   3 14155.2 1576.92   4
  -4   1   4 16432.5 1664.38   4
  -4   1   4 17631.7 2246.23   3
  -4   1   4 18376.8 1737.85   9
  -4   1   5 20424.5 1822.40   4
  -4   1   5 19754.9 2449.47   3
  -4   1   6 18867.6 2454.99   3
  -4   1   6 17322.1 1730.88   4
  -4   1   7 7701.33 1791.68   3
  -4   1   8-1043.13 821.637   3
  -4   1   9 5443.55 1429.19   3
  -4   1  10 10413.8 1694.43   1
  -4   1  10 11985.8 2119.79   3
  -4   1  11 9119.69 1855.45   3
  -4   1  11 7997.01 1606.97   1
  -4   1  12 1977.43 1004.80   1
  -4   1  12 5860.70 1584.96   3
  -4   1  13 877.451 899.404   1
  -4   1  13 2015.67 1217.22   3
  -4   1  14-1729.19 969.860   1
  -4   1  14-1377.26 830.740   3
  -4   1  15-756.432 746.504   3
  -4   1  15 718.599 772.102   1
  -4   1  16 1695.91 1139.99   1
  -4   1  16 246.448 708.537   3
  -4   1  17-347.440 663.093   3
  -4   1  17 2484.92 1402.32   1
  -4   1  18-3484.55 1515.16   2
  -4   1  18 1240.79 1056.53   1
  -4   1  19 982.260 824.040   2
  -4   1  19-687.969 793.494   1
  -4   1  20 2207.68 1509.63   2
  -4   1  20 1980.87 1342.58   1
  -4   2 -18 2875.95 1379.02   4
  -4   2 -17 1966.90 1312.23   4
  -4   2 -16 1410.25 1264.21   4
  -4   2 -15 3370.34 1559.12   4
  -4   2 -14 4047.25 1536.14   4
  -4   2 -13 6246.63 1838.49   4
  -4   2 -12 2289.61 882.176   4
  -4   2 -11 1170.44 860.217   4
  -4   2 -10 461.133 456.024   4
  -4   2  -9 3230.57 1059.42   4
  -4   2  -8 12628.5 1858.72   9
  -4   2  -8 13869.6 1947.34   4
  -4   2  -7 16030.5 2065.37   4
  -4   2  -7 13995.8 1881.69   9
  -4   2  -6 21942.4 2254.11   9
  -4   2  -6 22474.5 2420.78   4
  -4   2  -5 9362.34 1453.66   9
  -4   2  -5 10903.5 1633.49   4
  -4   2  -4 4003.75 953.466   4
  -4   2  -4 2390.65 784.504   9
  -4   2  -3 453.145 558.026   4
  -4   2  -3 70.7199 470.718   9
  -4   2  -2 5314.55 1045.31   4
  -4   2  -2 5026.46 982.498   9
  -4   2  -1 14920.8 1617.47   4
  -4   2  -1 15302.2 1729.62   9
  -4   2   0 28951.7 2365.60   9
  -4   2   0 27405.9 2193.87   4
  -4   2   1 61765.6 3369.05   4
  -4   2   1 68824.8 3767.84   9
  -4   2   1 68482.6 4528.15   3
  -4   2   2 16372.9 1602.07   4
  -4   2   2 21225.0 2584.50   3
  -4   2   2 20469.3 2022.83   9
  -4   2   3 2169.99 725.936   9
  -4   2   3 3708.64 1219.78   3
  -4   2   3 3595.24 775.009   4
  -4   2   4 2734.59 717.956   4
  -4   2   4 3225.90 1130.27   3
  -4   2   4 2222.47 779.990   9
  -4   2   5 14064.0 1410.55   4
  -4   2   5 16924.0 2385.67   3
  -4   2   6 18803.5 2468.95   3
  -4   2   6 16663.0 1493.08   4
  -4   2   7 8122.39 1738.47   3
  -4   2   7 9017.27 1104.19   4
  -4   2   8 3144.83 711.106   4
  -4   2   8 4572.30 1386.74   3
  -4   2   9 1847.86 1212.37   3
  -4   2  10 830.499 806.439   3
  -4   2  11 919.576 946.239   3
  -4   2  12 880.181 842.397   3
  -4   2  13 652.011 1000.21   3
  -4   2  13-122.809 579.952   1
  -4   2  14 3837.15 1549.91   3
  -4   2  14 1347.44 949.287   1
  -4   2  15 2238.13 1062.40   1
  -4   2  15 1098.40 792.284   3
  -4   2  16-269.946 823.757   3
  -4   2  16 1852.40 1245.02   1
  -4   2  17 1789.12 1242.62   1
  -4   2  17 1679.51 984.133   3
  -4   2  18 1241.19 838.059   1
  -4   2  18 417.848 802.251   3
  -4   2  19 542.394 626.067   1
  -4   2  20-1279.95 1370.18   2
  -4   2  20 254.870 739.367   1
  -4   3 -18 749.959 1091.41   4
  -4   3 -17 807.063 1090.95   4
  -4   3 -16 241.167 759.682   4
  -4   3 -15 117.447 988.462   4
  -4   3 -14 1200.48 1253.39   4
  -4   3 -13 608.471 911.850   4
  -4   3 -12 4883.07 1524.65   4
  -4   3 -11 4331.16 1403.88   4
  -4   3 -10 4997.06 1574.00   4
  -4   3  -9 2004.18 1013.25   4
  -4   3  -9 3793.50 1037.58   9
  -4   3  -8 1914.03 858.808   9
  -4   3  -8 2816.82 1104.38   4
  -4   3  -7 991.479 678.844   9
  -4   3  -7 513.797 669.980   4
  -4   3  -6 435.162 521.584   4
  -4   3  -6 224.231 697.082   9
  -4   3  -5 6238.32 1212.68   4
  -4   3  -5 6875.33 1370.64   9
  -4   3  -4 15690.6 1854.37   4
  -4   3  -4 16941.3 2051.49   9
  -4   3  -3 25636.4 2473.33   9
  -4   3  -3 21435.4 2096.32   4
  -4   3  -2 18345.5 1869.43   4
  -4   3  -2 21260.3 2222.96   9
  -4   3  -1 8556.69 1212.26   4
  -4   3  -1 10030.4 1496.51   9
  -4   3  -1 10912.6 1862.42   3
  -4   3   0 232.483 382.293   4
  -4   3   0 227.656 482.760   9
  -4   3   0 1246.03 858.281   3
  -4   3   1 4623.01 1316.66   3
  -4   3   1 4977.85 874.517   4
  -4   3   1 5410.54 1247.51   9
  -4   3   2 6027.89 1311.76   9
  -4   3   2 7127.14 1633.93   3
  -4   3   2 6963.43 940.424   4
  -4   3   3 8806.23 1719.63   3
  -4   3   3 9574.24 1027.76   4
  -4   3   3 10549.7 1674.55   9
  -4   3   4 13500.2 1840.73   9
  -4   3   4 11852.4 1129.12   4
  -4   3   4 13271.2 2230.25   3
  -4   3   5 18200.6 2512.31   3
  -4   3   5 15243.9 2042.60   9
  -4   3   5 13376.8 1136.95   4
  -4   3   6 11026.2 2066.43   3
  -4   3   7 1137.93 812.353   3
  -4   3   8 1118.92 701.492   3
  -4   3   9 6299.29 1697.43   3
  -4   3  10 7226.86 1952.03   3
  -4   3  11 6593.66 1927.77   3
  -4   3  12 4730.50 1743.57   3
  -4   3  13 4130.94 1598.49   3
  -4   3  14-85.8643 815.873   3
  -4   3  15-327.043 508.962   1
  -4   3  15-243.483 866.867   3
  -4   3  16 1740.31 1205.76   1
  -4   3  16 490.128 852.838   3
  -4   3  17-1657.21 1088.20   3
  -4   3  17-176.701 729.597   1
  -4   3  18-786.011 877.727   1
  -4   3  18-589.631 766.582   3
  -4   3  19 860.097 1004.91   1
  -4   3  19 773.658 784.439   3
  -4   4 -17-984.678 1153.87   4
  -4   4 -16-149.226 665.500   4
  -4   4 -15-21.1467 622.972   4
  -4   4 -14 558.491 1044.78   4
  -4   4 -13 2180.72 1068.89   4
  -4   4 -12 1691.65 1070.45   4
  -4   4 -11 418.054 624.456   4
  -4   4 -10-342.158 424.238   9
  -4   4 -10 1700.18 1072.92   4
  -4   4  -9 3169.74 1175.60   4
  -4   4  -9 2227.90 1143.09   9
  -4   4  -8 6590.77 1485.07   4
  -4   4  -8 5200.17 1371.63   9
  -4   4  -7 11134.9 1843.69   4
  -4   4  -7 11398.3 1948.48   9
  -4   4  -6 12659.4 1901.67   4
  -4   4  -6 12691.6 1973.14   9
  -4   4  -5 1777.71 865.583   9
  -4   4  -5 3438.61 993.247   4
  -4   4  -4 2005.19 865.760   9
  -4   4  -4 1835.35 790.936   4
  -4   4  -4 111.321 501.364   3
  -4   4  -3 816.997 744.745   9
  -4   4  -3 881.120 626.389   4
  -4   4  -3 84.9326 570.265   3
  -4   4  -2 3747.00 907.836   4
  -4   4  -2 3567.80 1125.65   3
  -4   4  -2 3980.55 1103.35   9
  -4   4  -1 11164.5 1977.29   3
  -4   4  -1 12819.3 1915.04   9
  -4   4  -1 10164.7 1315.56   4
  -4   4   0 17642.6 2407.87   3
  -4   4   0 16514.4 1595.52   4
  -4   4   0 19889.6 2406.31   9
  -4   4   1 12642.7 1290.92   4
  -4   4   1 14227.7 2173.57   9
  -4   4   1 15600.0 2223.00   3
  -4   4   2 4420.67 666.777   4
  -4   4   2 6057.70 1566.11   9
  -4   4   2 4823.34 1457.91   3
  -4   4   3 2574.22 1168.48   3
  -4   4   3 4421.55 1226.06   9
  -4   4   4 1018.06 903.027   3
  -4   4   4 1902.94 884.119   9
  -4   4   5 5447.56 1387.78   9
  -4   4   5 5082.86 1345.47   3
  -4   4   6 9822.50 2015.09   3
  -4   4   7 8247.82 1875.86   3
  -4   4   8 6883.65 1835.92   3
  -4   4   9 2048.73 1207.41   3
  -4   4  10 1740.42 1184.40   3
  -4   4  11 1928.33 1580.82   3
  -4   4  12 1943.54 1191.20   3
  -4   4  13 710.851 656.678   3
  -4   4  14 599.312 1175.66   3
  -4   4  15 2537.43 1486.12   3
  -4   4  16 1141.93 1165.91   3
  -4   4  16 519.627 826.594   1
  -4   4  17 1587.17 1139.73   1
  -4   4  17 1371.58 1300.21   3
  -4   4  18-814.616 715.989   1
  -4   4  18 1866.44 1216.19   3
  -4   4  19 3775.31 1786.37   3
  -4   4  19 114.489 704.601   1
  -4   4  20-381.775 1026.82   3
  -4   5 -16-648.992 754.250   4
  -4   5 -15 616.767 1042.62   4
  -4   5 -14 983.282 765.242   4
  -4   5 -13-547.958 798.466   4
  -4   5 -12 51.8241 663.462   4
  -4   5 -11 3145.29 1173.54   4
  -4   5 -11 705.754 669.245   9
  -4   5 -10 1785.53 778.175   9
  -4   5 -10 2451.40 1009.07   4
  -4   5 -10 2615.00 1057.38   3
  -4   5  -9 2286.49 918.634   3
  -4   5  -9 2476.19 1097.75   4
  -4   5  -9 3011.81 1288.91   9
  -4   5  -8 2375.39 1079.54   9
  -4   5  -8 1312.11 755.546   3
  -4   5  -8 640.199 614.001   4
  -4   5  -7 433.828 566.780   4
  -4   5  -7 868.905 683.431   3
  -4   5  -7 1378.98 966.186   9
  -4   5  -6 3098.39 1181.63   9
  -4   5  -6 1743.37 849.964   3
  -4   5  -6 1336.92 662.636   4
  -4   5  -5 4976.93 1308.32   3
  -4   5  -5 4462.96 1113.48   4
  -4   5  -5 3291.96 1079.37   9
  -4   5  -4 7020.64 1512.85   3
  -4   5  -4 6419.35 1246.80   4
  -4   5  -4 7295.01 1593.91   9
  -4   5  -3 11477.1 2116.55   9
  -4   5  -3 13972.2 2136.07   3
  -4   5  -3 13005.0 1734.49   4
  -4   5  -2 8281.81 1302.41   4
  -4   5  -2 6656.10 1530.75   9
  -4   5  -2 9097.12 1804.26   3
  -4   5  -1 2070.38 658.194   4
  -4   5  -1 3104.14 1159.56   3
  -4   5  -1 2122.56 902.885   9
  -4   5   0 521.598 718.315   3
  -4   5   0 348.771 491.920   9
  -4   5   1 4269.53 1475.79   9
  -4   5   1 3036.70 1051.67   3
  -4   5   2 6571.74 1646.57   9
  -4   5   2 7813.79 1730.27   3
  -4   5   3 10673.8 2100.31   3
  -4   5   3 10653.0 1942.26   9
  -4   5   4 7927.14 1701.49   9
  -4   5   4 10880.3 2084.31   3
  -4   5   5 4570.73 1400.12   9
  -4   5   5 2028.69 927.174   3
  -4   5   6 585.770 703.423   9
  -4   5   6 1502.89 1131.68   3
  -4   5   7 1519.70 1033.28   3
  -4   5   8 1608.11 1133.67   3
  -4   5   9 1332.58 1465.10   3
  -4   5  10 3815.27 1533.56   3
  -4   5  11 3866.51 1754.37   3
  -4   5  12 2207.67 1565.97   3
  -4   5  13-395.380 725.807   3
  -4   5  14 909.050 1234.19   3
  -4   5  15 1968.26 1472.02   3
  -4   5  16 1927.80 1403.07   3
  -4   5  17 1276.75 1451.47   3
  -4   5  18 1078.80 979.848   1
  -4   5  18-91.6756 961.047   3
  -4   5  19 99.9316 862.395   3
  -4   6 -15 1194.25 1173.88   5
  -4   6 -15-218.642 810.944   4
  -4   6 -14 1248.14 878.165   4
  -4   6 -13 432.720 636.650   4
  -4   6 -12 1035.94 840.402   9
  -4   6 -12-652.349 736.549   4
  -4   6 -11-369.558 618.036   4
  -4   6 -11 730.195 808.480   9
  -4   6 -10-604.763 472.850   9
  -4   6 -10-944.673 861.151   4
  -4   6  -9-102.845 444.336   4
  -4   6  -9 259.164 511.413   3
  -4   6  -9 115.824 476.710   9
  -4   6  -8 849.207 497.146   4
  -4   6  -8 942.357 625.090   3
  -4   6  -8 2088.84 1146.90   9
  -4   6  -7 5283.76 1597.96   9
  -4   6  -7 3604.68 1111.42   4
  -4   6  -7 3728.66 1192.88   3
  -4   6  -6 3341.23 966.013   4
  -4   6  -6 4047.34 1187.13   3
  -4   6  -6 2949.52 1236.31   9
  -4   6  -5 107.877 411.042   4
  -4   6  -5 1797.60 1066.55   9
  -4   6  -5 1775.31 868.585   3
  -4   6  -4-132.778 472.011   4
  -4   6  -4 801.619 624.109   3
  -4   6  -4 890.321 1025.46   9
  -4   6  -3 375.286 684.230   9
  -4   6  -3 248.249 551.585   3
  -4   6  -2 2392.59 1125.11   9
  -4   6  -2 2139.39 1034.82   3
  -4   6  -1 4608.69 1533.47   9
  -4   6  -1 4281.92 1327.29   3
  -4   6   0 6101.31 1572.19   9
  -4   6   0 5217.77 1499.89   3
  -4   6   1 5597.10 1534.19   3
  -4   6   1 6322.96 1696.78   9
  -4   6   2 4700.79 1491.44   9
  -4   6   2 5496.47 1479.31   3
  -4   6   3 1746.33 1159.51   9
  -4   6   3 1814.72 854.811   3
  -4   6   4 271.958 666.964   3
  -4   6   4 2060.28 862.139   9
  -4   6   5 3459.24 1349.03   3
  -4   6   5 981.061 766.287   9
  -4   6   6 4537.82 1445.39   3
  -4   6   6 5839.13 1706.16   9
  -4   6   7 4812.75 1520.69   3
  -4   6   8 3728.28 1479.61   3
  -4   6   9 2065.59 1085.03   3
  -4   6  10 670.749 1152.24   3
  -4   6  11 187.488 1105.57   3
  -4   6  12 254.838 1007.65   3
  -4   6  13 1689.04 1271.88   3
  -4   6  14 712.933 1390.76   3
  -4   6  15 4261.18 1987.58   3
  -4   6  16 1427.76 1688.69   3
  -4   6  17 1448.28 1466.35   3
  -4   7 -14 500.571 446.444   5
  -4   7 -12 1591.58 1197.26   9
  -4   7 -11 534.371 613.932   9
  -4   7 -10 1206.86 988.836   9
  -4   7  -9 357.819 478.149   9
  -4   7  -8 701.067 1075.05   9
  -4   7  -7 330.195 501.051   3
  -4   7  -7 684.350 858.455   9
  -4   7  -6 878.969 655.031   9
  -4   7  -6 1603.71 885.378   3
  -4   7  -5 2119.06 1013.96   3
  -4   7  -5 1379.59 901.016   9
  -4   7  -4 3434.68 1381.17   9
  -4   7  -4 3619.01 1341.05   3
  -4   7  -3 2865.47 1488.88   9
  -4   7  -3 6154.75 1646.32   3
  -4   7  -2 2750.76 1285.13   9
  -4   7  -2 2120.72 1032.53   3
  -4   7  -1 76.8870 501.542   9
  -4   7  -1 210.865 586.556   3
  -4   7   0 104.731 747.243   3
  -4   7   0 211.694 511.637   9
  -4   7   1 4082.52 1516.30   9
  -4   7   1 2819.31 1141.08   3
  -4   7   2 4293.62 1414.25   3
  -4   7   2 3971.58 1452.87   9
  -4   7   3 5723.18 1737.26   9
  -4   7   3 2178.74 950.902   3
  -4   7   4 1555.50 898.551   3
  -4   7   4 1453.80 1054.66   9
  -4   7   5 1978.82 1094.72   3
  -4   7   5 1331.02 649.349   9
  -4   7   6 343.972 950.030   9
  -4   7   6 159.857 583.857   3
  -4   7   7 3220.64 1496.56   3
  -4   7   7 673.946 899.766   9
  -4   7   8 1158.05 1100.86   3
  -4   7   8-647.903 581.177   9
  -4   7   9 1182.34 1148.12   3
  -4   7  10 2889.42 1374.37   3
  -4   7  11 1491.49 1090.22   3
  -4   7  12-1102.14 1150.45   3
  -4   7  13 467.046 1199.57   3
  -4   7  14 1428.42 1333.78   3
  -4   7  15-200.115 1132.54   3
  -4   7  16 1205.90 1442.58   3
  -4   8 -10 98.7580 792.110   9
  -4   8  -9-616.995 654.514   9
  -4   8  -8 466.960 822.103   9
  -4   8  -7 237.153 635.511   9
  -4   8  -6 2987.82 1538.25   9
  -4   8  -5 389.733 824.241   9
  -4   8  -4 475.039 749.838   3
  -4   8  -4 2048.20 1292.61   9
  -4   8  -3 1085.35 741.527   3
  -4   8  -3 544.018 977.883   9
  -4   8  -2 364.524 612.458   3
  -4   8  -2 1349.91 1051.60   9
  -4   8  -1 2974.65 1207.09   3
  -4   8  -1 3630.28 1475.92   9
  -4   8   0 3239.46 1247.47   3
  -4   8   0 3205.16 1574.82   9
  -4   8   1 1313.77 627.644   3
  -4   8   1 1618.15 1264.35   9
  -4   8   2-268.946 599.134   3
  -4   8   2 1020.19 826.161   9
  -4   8   3 866.018 815.329   3
  -4   8   3 144.703 844.381   9
  -4   8   4 1228.37 1152.15   9
  -4   8   4-544.735 544.223   3
  -4   8   5 1330.47 993.600   9
  -4   8   5 147.801 631.096   3
  -4   8   6 341.738 976.183   3
  -4   8   6 991.399 944.723   9
  -4   8   7 2995.77 1494.20   3
  -4   8   7 2325.42 1484.35   9
  -4   8   8-103.499 781.667   9
  -4   8   8 1055.75 1176.13   3
  -4   8   9 1039.47 922.180   3
  -4   8   9 160.447 932.278   9
  -4   8  10 476.584 850.994   3
  -4   8  11 434.542 1118.12   3
  -4   8  12 2023.16 1467.01   3
  -4   8  13 740.000 1024.91   3
  -4   9  -7 1174.77 1119.04   9
  -4   9  -6 1124.01 1049.14   9
  -4   9  -5 1389.74 1158.89   9
  -4   9  -4 2379.50 1350.15   9
  -4   9  -3-95.0551 518.501   9
  -4   9  -2 2511.36 1497.06   9
  -4   9  -2-128.885 485.847   3
  -4   9  -1 2205.24 1255.28   9
  -4   9  -1 593.554 650.803   3
  -4   9   0 992.568 969.481   3
  -4   9   0 1647.91 1335.54   9
  -4   9   1 1962.84 1076.45   3
  -4   9   1 308.388 862.153   9
  -4   9   2 1255.67 941.884   3
  -4   9   2 1548.35 1130.68   9
  -4   9   3 2322.87 1328.11   9
  -4   9   3 352.808 777.746   3
  -4   9   4 1738.84 1309.93   9
  -4   9   4 4038.93 1688.07   3
  -4   9   5 1119.20 861.216   9
  -4   9   5 1538.32 1187.55   3
  -4   9   6 694.144 1057.50   9
  -4   9   6 2366.16 1452.65   3
  -4   9   7 710.955 1052.94   9
  -4   9   7 485.426 929.713   3
  -4   9   8 1059.07 1097.53   9
  -4   9   8 83.3953 906.936   3
  -4   9   9 340.983 1149.63   9
  -4   9   9 5.47488 762.895   3
  -4   9  10 484.369 746.673   9
  -4   9  10 128.876 659.984   3
  -4   9  11 876.458 923.142   3
  -4   9  11 1195.48 1303.58   9
  -4  10  -2-1223.99 1113.22   9
  -4  10  -1 780.928 1177.42   9
  -4  10   0 909.853 720.610   9
  -4  10   1 1022.13 1158.90   9
  -4  10   1 1426.87 1140.44   3
  -4  10   2 1284.48 1009.15   9
  -4  10   2-264.878 822.842   3
  -4  10   3-3.48836 882.617   3
  -4  10   3-379.630 804.760   9
  -4  10   4 2419.31 1362.38   3
  -4  10   4 614.517 983.737   9
  -4  10   5 1722.66 1252.68   9
  -4  10   5 184.907 664.088   3
  -4  10   6-115.850 727.786   9
  -4  10   6 966.012 1197.11   3
  -4  10   7 286.125 612.980   9
  -4  10   7 494.589 892.131   3
  -4  10   8 44.0080 779.266   9
  -3 -13  -4 369.583 806.063   7
  -3 -13  -3 1972.95 1373.25   7
  -3 -13  -2 2104.94 1415.30   2
  -3 -13  -1-658.958 787.199   2
  -3 -12 -10 402.309 756.207  10
  -3 -12  -9 1788.34 1247.49  10
  -3 -12  -5 1660.16 1247.49   7
  -3 -12  -4 4797.35 2001.90   7
  -3 -12  -3-563.793 850.737   2
  -3 -12  -3 1204.42 1261.32   7
  -3 -12  -2 6.73353 551.707   4
  -3 -12  -2 2256.32 1217.38   2
  -3 -12  -1 1793.47 1317.48   2
  -3 -12   0 1141.06 1273.77   2
  -3 -12   1 2621.52 1429.76   2
  -3 -12   2 3454.10 1782.05   2
  -3 -12   3-938.643 1248.60   2
  -3 -12   4 2303.34 1301.07   2
  -3 -11 -13 1231.96 1142.84  10
  -3 -11 -12-1324.07 1058.62  10
  -3 -11 -11 1727.77 1218.17  10
  -3 -11 -10-134.304 640.577  10
  -3 -11  -9 1460.22 1199.59  10
  -3 -11  -8 2291.36 1393.23  10
  -3 -11  -7 1237.28 937.888  10
  -3 -11  -6 1789.40 1093.35   7
  -3 -11  -6 2038.54 983.808   4
  -3 -11  -6 2165.91 1294.68  10
  -3 -11  -5 2739.21 1531.63   7
  -3 -11  -5 460.521 791.356   4
  -3 -11  -5 2926.85 1364.60  10
  -3 -11  -4-928.678 898.891   2
  -3 -11  -4 2.97967 522.123   4
  -3 -11  -4 716.198 846.755   7
  -3 -11  -3-1259.78 1109.69   4
  -3 -11  -3 608.093 818.654   2
  -3 -11  -2 1457.59 972.525   2
  -3 -11  -1 1587.66 926.487   2
  -3 -11   0 4330.08 1661.71   2
  -3 -11   1 4039.21 1578.70   2
  -3 -11   2 2095.41 1483.89   2
  -3 -11   3 2705.16 1363.99   2
  -3 -11   4 1310.65 1039.39   2
  -3 -11   5 1510.93 1387.80   2
  -3 -11   6 3098.19 1619.93   2
  -3 -11   7 1237.58 1032.40   2
  -3 -11   8 1850.70 1613.55   2
  -3 -10 -15-259.206 943.668  10
  -3 -10 -14-1574.54 1086.93  10
  -3 -10 -13 1671.85 1023.80  10
  -3 -10 -12 1991.01 1437.57  10
  -3 -10 -11 2757.42 1511.76  10
  -3 -10 -10 1913.85 1255.20  10
  -3 -10 -10 1932.49 948.054   4
  -3 -10  -9 1346.65 891.608   4
  -3 -10  -9 2612.37 1239.92  10
  -3 -10  -8 1858.76 1053.93   4
  -3 -10  -8 804.074 1045.13  10
  -3 -10  -7-552.182 815.580  10
  -3 -10  -7 727.139 653.128   4
  -3 -10  -7-904.565 789.222   7
  -3 -10  -6 2322.22 1320.52  10
  -3 -10  -6 469.521 604.538   4
  -3 -10  -6 1567.14 1138.24   7
  -3 -10  -5 4675.38 1699.26   7
  -3 -10  -5 3587.94 1395.59   4
  -3 -10  -5 3419.93 1074.46   2
  -3 -10  -5 5078.52 1629.30  10
  -3 -10  -4 7356.35 1797.67  10
  -3 -10  -4 4877.33 1460.52   2
  -3 -10  -4 6069.98 1643.00   4
  -3 -10  -3 4999.06 1455.77   2
  -3 -10  -3 4435.56 1440.81   4
  -3 -10  -3 5297.64 1502.68  10
  -3 -10  -2 1985.43 1231.07   2
  -3 -10  -2 2567.81 1112.15  10
  -3 -10  -1 2318.35 1114.61   2
  -3 -10   0-86.3306 919.779   2
  -3 -10   1 2321.31 1161.21   2
  -3 -10   2 2859.84 1428.53   2
  -3 -10   3 2487.76 1363.97   2
  -3 -10   4 3179.11 1569.35   2
  -3 -10   5 6776.71 2171.49   2
  -3 -10   6 1842.18 1341.28   2
  -3 -10   7 807.196 1484.38   2
  -3 -10   8 1059.30 1192.26   2
  -3 -10   9 192.061 1109.59   2
  -3 -10  10 1892.20 1234.89   2
  -3  -9 -17-142.401 762.049  10
  -3  -9 -16 496.710 1249.02  10
  -3  -9 -15 1290.87 1226.97  10
  -3  -9 -14 1589.49 1142.09  10
  -3  -9 -13 2453.85 1064.99   4
  -3  -9 -13 982.344 1027.84  10
  -3  -9 -12 329.195 670.534  10
  -3  -9 -12 552.868 487.044   4
  -3  -9 -11 741.313 703.488   4
  -3  -9 -11 1655.15 1202.36  10
  -3  -9 -10 1628.88 1008.31  10
  -3  -9 -10 1145.25 925.742   4
  -3  -9  -9 832.987 757.872  10
  -3  -9  -9 1831.60 1035.01   4
  -3  -9  -8 4016.92 1399.05   4
  -3  -9  -8 3957.46 1142.12   7
  -3  -9  -8 3611.97 1207.20  10
  -3  -9  -7 6538.84 1768.15  10
  -3  -9  -7 6874.17 1583.50   7
  -3  -9  -7 4074.43 1354.88   4
  -3  -9  -6 7626.58 1672.76   7
  -3  -9  -6 6379.27 1816.92  10
  -3  -9  -6 3966.20 1317.88   4
  -3  -9  -5 3062.47 967.335   2
  -3  -9  -5 2507.91 1146.20   4
  -3  -9  -5 4460.92 1491.51  10
  -3  -9  -4-90.4694 653.362   4
  -3  -9  -4 1782.77 903.600   2
  -3  -9  -4 786.797 499.514  10
  -3  -9  -3 621.027 662.697   2
  -3  -9  -3 401.066 620.077   4
  -3  -9  -3 2017.55 1104.15  10
  -3  -9  -2 4292.20 1324.20  10
  -3  -9  -2 4378.40 1437.12   2
  -3  -9  -1 8573.61 1766.32   2
  -3  -9  -1 11218.9 1967.88  10
  -3  -9   0 9227.76 1954.10   2
  -3  -9   0 9701.91 1797.37  10
  -3  -9   1 7610.66 1787.91   2
  -3  -9   2 1640.83 1213.58   2
  -3  -9   3 1734.37 1241.29   2
  -3  -9   4 824.147 1079.72   2
  -3  -9   5 4229.56 1610.26   2
  -3  -9   6 4518.19 1820.76   2
  -3  -9   7 4431.15 1440.21   2
  -3  -9   8 19.5929 971.383   2
  -3  -9   9 4996.78 2104.02   2
  -3  -9  10-972.940 933.166   2
  -3  -9  11-608.237 982.041   2
  -3  -9  12-136.241 1281.72   2
  -3  -9  13 556.971 1193.83   2
  -3  -8 -18 1783.61 1267.88  10
  -3  -8 -17 454.718 668.620  10
  -3  -8 -16 264.600 704.828   4
  -3  -8 -16 2749.71 1585.58  10
  -3  -8 -15 264.375 633.939   4
  -3  -8 -15 640.600 996.821  10
  -3  -8 -14-315.312 502.270   4
  -3  -8 -14 2631.73 1566.29  10
  -3  -8 -13 276.990 568.743   4
  -3  -8 -13 2511.08 1315.88  10
  -3  -8 -12 2767.57 1104.80   4
  -3  -8 -12 3911.66 1548.12  10
  -3  -8 -11 2405.28 1028.44   4
  -3  -8 -11 6154.36 1898.25  10
  -3  -8 -10 4102.47 1457.23  10
  -3  -8 -10 5058.70 1382.46   4
  -3  -8  -9 3255.12 1106.93   4
  -3  -8  -9 7515.92 1896.45  10
  -3  -8  -8 1465.64 1077.27  10
  -3  -8  -8 1140.43 998.455   4
  -3  -8  -8 594.453 582.439   7
  -3  -8  -7 1081.38 728.689   4
  -3  -8  -7 870.719 515.379   7
  -3  -8  -7 1228.48 890.670  10
  -3  -8  -6 5400.09 1278.59   7
  -3  -8  -6 3293.28 939.483   2
  -3  -8  -6 6350.29 1521.96   4
  -3  -8  -6 4703.66 1301.07  10
  -3  -8  -5 10003.4 1912.57   4
  -3  -8  -5 11559.4 2199.37  10
  -3  -8  -5 8484.92 1522.49   2
  -3  -8  -4 12093.5 1795.98   2
  -3  -8  -4 12493.9 2126.00  10
  -3  -8  -4 11933.9 2103.30   4
  -3  -8  -3 13624.2 1958.02   2
  -3  -8  -3 11938.8 2014.74  10
  -3  -8  -2 10429.1 1804.58   2
  -3  -8  -2 9135.66 1685.00  10
  -3  -8  -1 1820.41 825.793  10
  -3  -8  -1 2175.51 1017.48   2
  -3  -8   0 132.069 383.110  10
  -3  -8   0 2100.51 1119.09   2
  -3  -8   1 2409.95 783.219  10
  -3  -8   1 4817.16 1313.65   2
  -3  -8   2 11145.2 2072.09   2
  -3  -8   3 12801.7 2272.96   2
  -3  -8   4 7462.07 1716.97   2
  -3  -8   5 3671.46 1568.92   2
  -3  -8   6 230.640 718.897   2
  -3  -8   7 251.784 890.347   2
  -3  -8   8 2407.78 1614.28   2
  -3  -8   9 2591.98 1463.59   2
  -3  -8  10 5435.25 1993.36   2
  -3  -8  11 3510.50 1826.83   2
  -3  -8  12 2140.90 1828.96   2
  -3  -8  13-1699.18 1096.39   1
  -3  -8  13 686.513 1371.08   2
  -3  -8  14 2592.12 1439.29   1
  -3  -8  14 1069.17 1401.36   2
  -3  -8  15-2060.04 1379.12   1
  -3  -8  15 5351.76 2262.80   2
  -3  -8  16 1517.85 1507.95   1
  -3  -7 -19 976.786 948.337  10
  -3  -7 -18-179.463 697.575   4
  -3  -7 -18 912.325 1036.11  10
  -3  -7 -17-950.685 705.691   4
  -3  -7 -16 1992.99 1107.63   4
  -3  -7 -15 1796.42 1023.63   4
  -3  -7 -14 4008.54 1320.70   4
  -3  -7 -13 3531.15 1213.02   4
  -3  -7 -12 1498.21 862.978   4
  -3  -7 -11-888.384 731.411   4
  -3  -7 -10 1327.73 744.069   4
  -3  -7  -9 5616.96 1077.50   7
  -3  -7  -9 4924.09 1300.91   4
  -3  -7  -8 14327.3 1724.22   7
  -3  -7  -8 13828.8 2124.52   4
  -3  -7  -7 10685.9 1917.22   4
  -3  -7  -7 10230.5 1565.21   7
  -3  -7  -6 10591.9 1461.64   2
  -3  -7  -6 10794.6 1828.14   4
  -3  -7  -6 12235.6 1644.99   7
  -3  -7  -5 7073.88 1272.49   2
  -3  -7  -5 5393.51 1259.07   4
  -3  -7  -4 306.915 542.489   4
  -3  -7  -4 1013.67 881.655   2
  -3  -7  -3 3854.57 969.825   2
  -3  -7  -3 3942.31 1293.00  10
  -3  -7  -3 3285.41 1079.14   4
  -3  -7  -2 16839.4 2139.56  10
  -3  -7  -2 13062.6 1880.14   2
  -3  -7  -1 17840.0 2209.52   2
  -3  -7  -1 22265.0 2442.64  10
  -3  -7   0 19427.6 2202.56  10
  -3  -7   0 18255.6 2322.11   2
  -3  -7   1 13637.3 1776.30  10
  -3  -7   1 12598.8 2026.91   2
  -3  -7   2 5194.97 1418.82   2
  -3  -7   2 5717.67 1066.91  10
  -3  -7   3 938.549 451.955  10
  -3  -7   3 707.506 896.245   2
  -3  -7   4 2993.57 1305.99   2
  -3  -7   5 5707.79 1695.63   2
  -3  -7   6 15114.1 2546.07   2
  -3  -7   7 6134.74 1695.58   2
  -3  -7   8 6518.94 1893.30   2
  -3  -7   9 1274.63 949.419   1
  -3  -7   9 2871.56 1571.53   2
  -3  -7  10 571.581 1151.07   2
  -3  -7  10 532.116 653.562   1
  -3  -7  11 835.816 931.252   1
  -3  -7  11 1032.51 1247.12   2
  -3  -7  12 955.386 1045.45   1
  -3  -7  12 1982.70 1362.15   2
  -3  -7  13 2714.74 1362.20   1
  -3  -7  13 1277.65 1097.58   2
  -3  -7  14 2794.03 1340.91   1
  -3  -7  14 1779.19 1418.41   2
  -3  -7  15 1805.57 1068.77   1
  -3  -7  15 2752.14 1715.52   2
  -3  -7  16 2538.76 1679.45   1
  -3  -7  16 989.088 1482.68   2
  -3  -7  17 679.271 1025.76   1
  -3  -6 -20-1073.01 842.322   4
  -3  -6 -19 636.852 797.133   4
  -3  -6 -18 1036.46 848.679   4
  -3  -6 -17 790.639 670.467   4
  -3  -6 -16 909.148 907.626   4
  -3  -6 -15 825.221 824.856   4
  -3  -6 -14 376.821 610.389   4
  -3  -6 -13 2941.88 1106.14   4
  -3  -6 -12 5816.69 1440.21   4
  -3  -6 -11 8136.67 1680.75   4
  -3  -6 -10 12527.9 2040.72   4
  -3  -6  -9 5104.77 890.429   7
  -3  -6  -9 4784.60 1252.93   4
  -3  -6  -8-230.446 568.307   4
  -3  -6  -8 13.4289 260.697   7
  -3  -6  -7 1357.31 629.151   7
  -3  -6  -7 48.4406 729.811   4
  -3  -6  -6 8938.75 1688.29   4
  -3  -6  -6 7468.19 1019.15   2
  -3  -6  -5 26481.1 2163.70   2
  -3  -6  -5 25697.5 2826.52   4
  -3  -6  -4 40569.1 2781.56   2
  -3  -6  -4 39664.2 3407.94   4
  -3  -6  -3 36909.9 2696.39   2
  -3  -6  -3 40273.0 3383.15   4
  -3  -6  -2 17430.0 2012.43   2
  -3  -6  -1 498.404 514.740   2
  -3  -6   0 5225.25 1097.31  10
  -3  -6   0 7428.63 1385.42   2
  -3  -6   1 28821.5 2750.88   2
  -3  -6   1 30369.4 2443.63  10
  -3  -6   2 40504.4 2786.25  10
  -3  -6   2 38469.5 3358.88   2
  -3  -6   3 21988.7 2476.82   2
  -3  -6   3 19834.7 1806.05  10
  -3  -6   4 8256.18 1740.32   2
  -3  -6   4 6567.09 956.656  10
  -3  -6   5 2335.00 1053.36   2
  -3  -6   6 1041.08 927.364   2
  -3  -6   6 1395.75 859.221   1
  -3  -6   7 684.771 912.817   2
  -3  -6   7 527.986 767.315   1
  -3  -6   8 1860.76 1077.13   1
  -3  -6   8 422.785 756.023   2
  -3  -6   9 4566.71 1172.90   1
  -3  -6   9 4074.01 1349.32   2
  -3  -6  10 3935.20 1380.74   2
  -3  -6  10 4274.26 1415.38   1
  -3  -6  11 4220.88 1418.43   1
  -3  -6  11 4721.36 1662.14   2
  -3  -6  12 2496.37 1251.35   1
  -3  -6  12 1263.76 1300.56   2
  -3  -6  13 1301.87 860.865   2
  -3  -6  13 513.452 677.015   1
  -3  -6  14 1177.05 1000.09   1
  -3  -6  14 1040.98 1132.84   2
  -3  -6  15 1029.10 1002.28   2
  -3  -6  15 1821.28 1368.87   1
  -3  -6  16 1803.03 1370.48   1
  -3  -6  16-294.968 1027.64   2
  -3  -6  17-252.913 808.458   1
  -3  -6  17 1093.81 1214.70   2
  -3  -6  18 1054.87 1039.16   1
  -3  -6  18 1414.87 1181.83   2
  -3  -5 -22 1300.86 986.731   4
  -3  -5 -21 768.944 955.067   4
  -3  -5 -20-767.407 925.147   4
  -3  -5 -19 319.144 816.170   4
  -3  -5 -18 665.721 928.182   4
  -3  -5 -17 100.499 478.536   4
  -3  -5 -16 1609.94 841.206   4
  -3  -5 -15 3496.42 1170.30   4
  -3  -5 -14 1934.60 896.013   4
  -3  -5 -13 2187.17 1034.84   4
  -3  -5 -12 1927.39 941.549   4
  -3  -5 -11 273.317 524.632   4
  -3  -5 -10 2119.21 877.797   4
  -3  -5  -9 8376.49 857.237   7
  -3  -5  -9 8690.92 1614.77   4
  -3  -5  -8 21322.7 1543.89   7
  -3  -5  -8 25056.3 2670.37   4
  -3  -5  -7 27408.3 2868.21   4
  -3  -5  -7 27258.1 1842.68   7
  -3  -5  -6 38043.1 2352.30   7
  -3  -5  -6 37579.5 2100.16   2
  -3  -5  -6 41222.4 3358.58   4
  -3  -5  -5 5065.42 844.776   2
  -3  -5  -5 4959.79 1247.49   4
  -3  -5  -4 1589.06 682.164   4
  -3  -5  -4 2415.14 765.779   2
  -3  -5  -3 12731.2 1772.25   4
  -3  -5  -3 13153.5 1389.87   2
  -3  -5  -2 24932.3 2115.80   2
  -3  -5  -1 32239.2 2517.39   2
  -3  -5   0 36282.1 2742.13   2
  -3  -5   1 31257.7 2547.45   2
  -3  -5   2 15878.8 1954.27   2
  -3  -5   3 1705.66 710.872   2
  -3  -5   3 2599.30 641.376  10
  -3  -5   4 5337.12 1068.13   1
  -3  -5   4 3665.79 656.214  10
  -3  -5   4 4489.99 1148.73   2
  -3  -5   5 25388.7 2648.54   2
  -3  -5   5 26263.4 2322.45   1
  -3  -5   5 23885.6 1505.48  10
  -3  -5   6 31480.3 1810.30   3
  -3  -5   6 35646.0 3263.60   2
  -3  -5   6 36652.4 2864.35   1
  -3  -5   7 30507.8 2775.10   1
  -3  -5   7 30031.4 3049.61   2
  -3  -5   8 9967.14 1684.45   1
  -3  -5   8 12559.8 1988.33   2
  -3  -5   9 577.270 896.369   2
  -3  -5   9 102.880 485.873   1
  -3  -5  10 257.393 434.635   1
  -3  -5  10 454.673 733.099   2
  -3  -5  11 2406.74 1055.76   2
  -3  -5  11 2468.22 702.542   1
  -3  -5  12 1770.57 898.866   2
  -3  -5  12 4468.18 1472.57   1
  -3  -5  13 2026.01 1420.86   2
  -3  -5  13 3216.15 1291.69   1
  -3  -5  14 2506.87 1202.55   1
  -3  -5  14 1359.81 1177.76   2
  -3  -5  15 1817.66 1280.73   2
  -3  -5  15 927.995 1105.04   1
  -3  -5  16 419.613 947.325   1
  -3  -5  16-2568.10 1151.90   2
  -3  -5  17 220.029 862.438   2
  -3  -5  17 689.716 1155.48   1
  -3  -5  18-195.930 840.596   2
  -3  -5  18 1716.40 1210.58   1
  -3  -5  19 581.586 906.414   2
  -3  -5  19 1147.32 1302.09   1
  -3  -4 -22 772.296 966.947   4
  -3  -4 -21 1584.25 1106.41   4
  -3  -4 -20-1205.33 1020.75   4
  -3  -4 -19 981.757 675.546   4
  -3  -4 -18 941.564 865.967   4
  -3  -4 -17 307.581 633.563   4
  -3  -4 -16 1567.71 946.967   4
  -3  -4 -15 1062.91 861.146   4
  -3  -4 -14-105.645 623.725   4
  -3  -4 -13 5064.43 1400.71   4
  -3  -4 -12 18815.7 2409.76   4
  -3  -4 -11 21917.9 2535.28   4
  -3  -4 -10 13484.7 1910.74   4
  -3  -4  -9 3667.37 385.654   7
  -3  -4  -9 4793.64 1247.82   4
  -3  -4  -8 467.255 494.061   4
  -3  -4  -8-58.9305 118.543   7
  -3  -4  -7 4673.65 1108.76   4
  -3  -4  -7 5261.88 590.451   7
  -3  -4  -6 38817.8 1961.44   7
  -3  -4  -6 43948.2 3458.81   4
  -3  -4  -5 30012.3 1666.72   2
  -3  -4  -5 31234.3 2879.87   4
  -3  -4  -4 40509.3 2177.33   2
  -3  -4  -4 41993.8 3274.06   4
  -3  -4  -3 42989.8 3234.54   4
  -3  -4  -3 37338.5 2261.35   2
  -3  -4  -2 20376.4 2194.93   4
  -3  -4  -2 22997.9 1803.93   2
  -3  -4  -1 1650.76 478.276   2
  -3  -4   0 10207.6 1285.75   2
  -3  -4   1 42300.1 2735.33   2
  -3  -4   2 51158.2 3190.16   2
  -3  -4   2 56665.1 2757.50   1
  -3  -4   3 41412.8 2476.75   1
  -3  -4   3 44188.5 2987.29   2
  -3  -4   4 19791.2 1764.18   1
  -3  -4   4 21365.5 2102.11   2
  -3  -4   5 3836.06 522.700  10
  -3  -4   5 6497.69 1378.72   2
  -3  -4   5 5168.73 1060.10   1
  -3  -4   6 187.203 359.926   3
  -3  -4   6 1170.75 535.529   1
  -3  -4   6 1991.65 907.513   2
  -3  -4   7 2349.40 569.584   3
  -3  -4   7 2943.59 830.725   1
  -3  -4   7 3608.97 1191.75   2
  -3  -4   8 7968.29 1390.21   1
  -3  -4   8 8877.87 1725.00   2
  -3  -4   8 5368.40 723.368   3
  -3  -4   9 9946.69 1972.80   2
  -3  -4   9 11647.2 1790.08   1
  -3  -4  10 7330.69 1740.07   2
  -3  -4  10 8334.55 1574.82   1
  -3  -4  11 7497.77 1642.64   1
  -3  -4  11 7027.12 1821.83   2
  -3  -4  12 1724.24 989.864   1
  -3  -4  12 3641.75 1261.34   2
  -3  -4  13-6.31034 583.102   1
  -3  -4  13 1220.92 1040.31   2
  -3  -4  14-583.666 738.698   2
  -3  -4  14 2089.26 1145.54   1
  -3  -4  15 1467.77 1140.72   1
  -3  -4  15 2970.30 1211.37   2
  -3  -4  16-385.882 1072.09   2
  -3  -4  16 2414.86 1264.59   1
  -3  -4  17-3084.66 1682.89   2
  -3  -4  17 2385.08 1388.66   1
  -3  -4  18-1099.30 1453.71   2
  -3  -4  18 2155.94 1303.56   1
  -3  -4  19 909.249 1063.84   2
  -3  -4  19 1947.22 1274.83   1
  -3  -4  20 2129.34 1623.60   1
  -3  -4  20-539.232 806.466   2
  -3  -3 -22 320.136 680.591   4
  -3  -3 -21 543.728 787.700   4
  -3  -3 -20 691.332 803.380   4
  -3  -3 -19-381.820 732.256   4
  -3  -3 -18-1195.59 990.228   4
  -3  -3 -17-603.073 574.752   4
  -3  -3 -16 2259.94 1084.56   4
  -3  -3 -15 4912.91 1241.37   4
  -3  -3 -14 4918.40 1295.73   4
  -3  -3 -13 4351.81 1245.26   4
  -3  -3 -12 361.771 593.867   4
  -3  -3 -11 993.424 973.302   4
  -3  -3 -10 3791.10 1166.16   4
  -3  -3  -9 14244.0 1960.12   4
  -3  -3  -8 33503.6 2922.66   4
  -3  -3  -7 44131.1 3360.30   4
  -3  -3  -6 32295.9 1055.98   7
  -3  -3  -6 40704.7 3031.47   4
  -3  -3  -5 2477.11 332.599   7
  -3  -3  -5 3953.92 1104.67   4
  -3  -3  -5 2448.62 354.790   2
  -3  -3  -4 831.119 572.051   4
  -3  -3  -4 212.783 195.498   2
  -3  -3  -3 34169.3 2788.08   4
  -3  -3  -3 31950.4 1739.26   2
  -3  -3  -2 99420.6 4948.46   4
  -3  -3  -2 91017.6 3537.36   2
  -3  -3  -1 100326. 3948.19   2
  -3  -3  -1 99349.6 4972.53   4
  -3  -3   0 65086.4 3143.00   2
  -3  -3   1 26770.0 2017.37   2
  -3  -3   1 24494.9 1379.74   1
  -3  -3   2 4666.27 933.978   2
  -3  -3   2 3743.83 551.720   1
  -3  -3   3 4523.18 717.536   1
  -3  -3   3 2301.45 682.653   2
  -3  -3   4 21620.3 2067.60   2
  -3  -3   4 19964.6 1597.85   1
  -3  -3   5 36931.2 2811.87   2
  -3  -3   5 32902.1 2174.64   1
  -3  -3   6 29078.2 2116.37   3
  -3  -3   6 32067.4 2291.91   1
  -3  -3   6 32645.3 2830.22   2
  -3  -3   7 22591.0 2434.93   2
  -3  -3   7 25604.3 2158.49   1
  -3  -3   7 21126.6 1736.47   3
  -3  -3   8 7907.59 997.767   3
  -3  -3   8 8410.01 1390.48   1
  -3  -3   8 8387.09 1625.37   2
  -3  -3   9 1188.30 718.115   1
  -3  -3   9 951.545 422.549   3
  -3  -3   9 2004.63 934.838   2
  -3  -3  10-631.687 668.464   1
  -3  -3  10 594.661 894.427   2
  -3  -3  10 685.795 482.211   3
  -3  -3  11 5109.46 1224.84   1
  -3  -3  11 5627.35 1520.29   2
  -3  -3  12 6980.84 1794.41   2
  -3  -3  12 6174.76 1513.28   1
  -3  -3  13 6529.35 1559.06   1
  -3  -3  13 6418.13 1706.96   2
  -3  -3  14 3578.93 1454.40   2
  -3  -3  14 3956.11 1415.06   1
  -3  -3  15 1931.95 1231.95   2
  -3  -3  15 622.307 797.740   1
  -3  -3  16 2273.41 1274.76   2
  -3  -3  16 3597.90 1466.59   1
  -3  -3  17 810.120 1073.34   2
  -3  -3  17 348.359 816.111   1
  -3  -3  18 3421.64 1787.34   2
  -3  -3  18 1112.64 1156.42   1
  -3  -3  19 1109.54 1332.72   1
  -3  -3  19 1348.26 1249.71   2
  -3  -3  20-2278.49 1288.71   2
  -3  -3  20 1580.77 1559.92   1
  -3  -2 -22 905.261 957.548   4
  -3  -2 -21 173.467 767.411   4
  -3  -2 -20 2263.36 1306.38   4
  -3  -2 -19 1162.17 944.895   4
  -3  -2 -18-785.889 928.156   4
  -3  -2 -17 1492.67 999.101   4
  -3  -2 -16 487.070 839.224   4
  -3  -2 -15-388.620 742.643   4
  -3  -2 -14 345.922 660.757   4
  -3  -2 -13 4516.35 1318.77   4
  -3  -2 -12 13133.2 1967.77   4
  -3  -2 -11 15138.0 2048.74   4
  -3  -2 -10 13882.4 1934.32   4
  -3  -2  -9 8827.56 1590.77   4
  -3  -2  -8 1533.95 858.675   4
  -3  -2  -7 12058.9 1695.86   4
  -3  -2  -6 26500.5 2471.52   4
  -3  -2  -5 28673.5 2556.76   4
  -3  -2  -4 82734.9 2554.96   7
  -3  -2  -4 94718.9 2785.67   2
  -3  -2  -3 42539.8 1832.76   2
  -3  -2  -3 39744.8 1679.64   7
  -3  -2  -3 42312.2 3020.10   4
  -3  -2  -2 28625.1 2333.09   4
  -3  -2  -2 27285.2 1580.63   2
  -3  -2  -1 1983.99 441.002   2
  -3  -2  -1 2726.42 825.863   4
  -3  -2   0 10076.8 1064.16   2
  -3  -2   1 52580.5 2802.00   2
  -3  -2   1 51197.2 1859.68   1
  -3  -2   2 99082.8 4310.48   2
  -3  -2   2 99779.9 3311.91   1
  -3  -2   3 96771.5 3518.01   1
  -3  -2   3 100944. 4489.36   2
  -3  -2   4 42316.3 2272.56   1
  -3  -2   4 43227.9 2883.21   2
  -3  -2   5 6316.82 567.089   9
  -3  -2   5 8507.69 1134.24   3
  -3  -2   5 7976.36 1230.70   2
  -3  -2   5 9838.83 1079.14   1
  -3  -2   6 159.912 295.628   1
  -3  -2   6 464.840 367.158   3
  -3  -2   7 5879.72 596.745  10
  -3  -2   7 10329.9 1314.83   1
  -3  -2   7 10682.0 1555.94   2
  -3  -2   7 8578.28 1228.81   3
  -3  -2   8 17649.9 1877.19   1
  -3  -2   8 21328.0 2385.32   2
  -3  -2   8 18523.2 1784.51   3
  -3  -2   9 21416.7 2173.27   1
  -3  -2   9 18167.6 2251.07   2
  -3  -2   9 18927.4 1885.09   3
  -3  -2  10 15165.9 1667.35   3
  -3  -2  10 13652.3 1803.81   1
  -3  -2  10 13201.0 2099.85   2
  -3  -2  11 5805.24 1442.33   2
  -3  -2  11 5590.50 1266.53   1
  -3  -2  11 4209.73 934.952   3
  -3  -2  12 63.9354 501.605   1
  -3  -2  12 890.987 863.243   2
  -3  -2  12 646.050 512.388   3
  -3  -2  13 8.85783 794.840   2
  -3  -2  13-363.831 622.244   1
  -3  -2  14 796.745 1036.63   2
  -3  -2  14 14.5303 516.294   1
  -3  -2  15 1331.78 1140.18   2
  -3  -2  15 1865.41 1046.83   1
  -3  -2  16 315.841 870.031   2
  -3  -2  16 1969.55 1154.54   1
  -3  -2  17 2704.72 1597.78   2
  -3  -2  17 1473.30 1142.31   1
  -3  -2  18 1657.66 1367.06   2
  -3  -2  18 2282.56 1502.91   1
  -3  -2  19 2245.30 1440.44   2
  -3  -2  19 1203.51 1195.22   1
  -3  -2  20 2082.29 1415.31   2
  -3  -2  20-351.135 687.919   1
  -3  -2  21 1266.74 1080.03   1
  -3  -2  21 1904.98 1560.82   2
  -3  -1 -21 1025.73 1187.28   4
  -3  -1 -20 2163.63 1326.93   4
  -3  -1 -19 1817.97 977.118   4
  -3  -1 -18 1331.66 1103.26   4
  -3  -1 -17 1551.94 1043.37   4
  -3  -1 -16 3482.59 1169.09   4
  -3  -1 -15 7016.10 1600.80   4
  -3  -1 -14 6409.33 1462.91   4
  -3  -1 -13 1350.77 804.047   4
  -3  -1 -12 314.124 802.682   4
  -3  -1 -11 659.585 745.686   4
  -3  -1 -10 21075.4 2318.03   4
  -3  -1  -9 24465.9 2519.53   4
  -3  -1  -8 35975.4 2907.06   4
  -3  -1  -7 45169.5 3226.64   4
  -3  -1  -6 27841.9 2456.57   4
  -3  -1  -5 1301.31 214.165   2
  -3  -1  -5 1903.19 720.176   4
  -3  -1  -4 6284.51 1175.48   4
  -3  -1  -4 5013.35 478.917   1
  -3  -1  -4 3556.91 353.832   7
  -3  -1  -3 110396. 3021.26   1
  -3  -1  -3 107544. 3394.77   7
  -3  -1  -2 67080.3 3698.37   4
  -3  -1  -2 58211.5 1739.43   1
  -3  -1  -1 54023.5 1798.71   1
  -3  -1  -1 64162.3 3509.94   4
  -3  -1   0 42548.6 2807.87   4
  -3  -1   1 14878.1 1520.91   4
  -3  -1   1 12227.1 615.974   9
  -3  -1   2 512.960 296.337   1
  -3  -1   2 357.605 101.414   9
  -3  -1   3 2781.07 524.651   1
  -3  -1   3 2385.61 313.009   9
  -3  -1   4 15278.7 1699.26   3
  -3  -1   4 18011.5 1412.30   1
  -3  -1   5 37109.5 2636.19   3
  -3  -1   5 37125.0 2271.35   1
  -3  -1   6 47764.7 3060.34   3
  -3  -1   6 46778.6 2766.95   1
  -3  -1   7 32865.8 2442.60   1
  -3  -1   7 30496.9 2449.75   3
  -3  -1   8 8884.03 1345.15   3
  -3  -1   8 10989.5 1483.18   1
  -3  -1   9 1555.01 708.085   1
  -3  -1   9 834.296 580.707   3
  -3  -1  10 2301.49 931.086   1
  -3  -1  10 3346.04 975.561   3
  -3  -1  11 6021.92 1482.91   2
  -3  -1  11 10306.7 1684.83   1
  -3  -1  11 10459.2 1652.53   3
  -3  -1  12 3396.43 1077.36   1
  -3  -1  12 3426.62 1135.41   2
  -3  -1  12 2624.77 772.906   3
  -3  -1  13 7129.08 1403.25   3
  -3  -1  13 6498.87 1686.09   2
  -3  -1  14 2471.50 1278.69   2
  -3  -1  14 1782.87 888.200   3
  -3  -1  14 2880.89 1025.53   1
  -3  -1  15 2816.47 1280.30   1
  -3  -1  15 1223.24 848.103   2
  -3  -1  16-504.818 904.882   2
  -3  -1  16-1021.92 927.245   1
  -3  -1  17-156.099 608.729   1
  -3  -1  17 997.811 1110.87   2
  -3  -1  18 3132.65 1638.29   2
  -3  -1  18 981.289 885.419   1
  -3  -1  19 891.422 1036.08   2
  -3  -1  19 1142.60 1156.23   1
  -3  -1  20 503.005 745.618   2
  -3  -1  20 208.391 944.788   1
  -3  -1  21 919.507 1119.27   2
  -3  -1  21-550.514 719.266   1
  -3   0 -21-171.952 760.120   4
  -3   0 -20-77.0304 783.361   4
  -3   0 -19 2645.32 1473.62   4
  -3   0 -18 2042.48 1112.95   4
  -3   0 -17 1516.60 1244.15   4
  -3   0 -16 2218.80 1273.04   4
  -3   0 -15-102.821 591.371   4
  -3   0 -14-116.219 492.991   4
  -3   0 -13 1096.79 712.066   4
  -3   0 -12 8503.32 1732.08   4
  -3   0 -11 23155.7 2612.76   4
  -3   0 -10 28693.2 2774.18   4
  -3   0  -9 7253.19 1402.77   4
  -3   0  -8 1221.16 855.927   4
  -3   0  -8 81.2973 114.721   2
  -3   0  -7 7975.23 682.687   2
  -3   0  -7 11476.1 1740.84   4
  -3   0  -6 32150.0 1604.93   2
  -3   0  -6 40978.6 2977.38   4
  -3   0  -5 68809.0 3868.14   4
  -3   0  -4 70778.3 3820.19   4
  -3   0  -3 15486.5 1329.14   9
  -3   0  -3 14148.8 1596.37   4
  -3   0  -2 48480.4 2305.83   9
  -3   0  -2 47503.3 2897.16   4
  -3   0  -1-35.9580 527.447   4
  -3   0  -1 33.1872 239.729   9
  -3   0   0 20394.3 1302.58   9
  -3   0   0 20557.4 1734.96   4
  -3   0   1 81968.8 3816.68   4
  -3   0   1 83505.7 3035.53   9
  -3   0   2 113779. 4685.54   4
  -3   0   2 117534. 3904.68   9
  -3   0   3 87954.7 4405.39   3
  -3   0   4 32738.1 2544.18   3
  -3   0   5 4547.45 1018.24   3
  -3   0   6-143.578 467.383   3
  -3   0   7 12327.8 1677.21   3
  -3   0   7 10147.6 1372.18   1
  -3   0   8 25429.2 2449.33   3
  -3   0   8 26367.1 2287.59   1
  -3   0   9 31213.3 2786.03   3
  -3   0   9 28237.2 2484.49   1
  -3   0  10 19891.9 2189.06   3
  -3   0  10 18037.5 2096.45   1
  -3   0  11 7697.65 1577.03   1
  -3   0  11 6956.87 1435.31   3
  -3   0  12 875.466 880.311   1
  -3   0  12 1226.48 662.540   3
  -3   0  13 564.005 587.857   1
  -3   0  13 713.270 838.578   3
  -3   0  14 2775.96 976.995   3
  -3   0  14 4439.50 1403.48   1
  -3   0  15 2250.89 946.312   3
  -3   0  15 2738.57 1057.29   2
  -3   0  15 1908.96 1011.88   1
  -3   0  16 1523.69 974.689   2
  -3   0  16 4185.47 1379.57   3
  -3   0  16 1896.02 1107.96   1
  -3   0  17 1609.21 1071.48   2
  -3   0  17 1589.03 1218.56   1
  -3   0  18 1477.16 1158.55   1
  -3   0  18 1048.98 1056.06   2
  -3   0  19 1061.60 1212.13   2
  -3   0  19 267.714 774.609   1
  -3   0  20-951.690 877.939   1
  -3   0  20-1461.15 1240.96   2
  -3   0  21 895.552 792.444   2
  -3   0  21-866.130 965.240   1
  -3   0  22-454.158 878.842   2
  -3   1 -21 961.052 870.274   4
  -3   1 -20-268.791 518.639   4
  -3   1 -19 1100.22 958.294   4
  -3   1 -18 829.760 897.629   4
  -3   1 -17 1572.93 1192.76   4
  -3   1 -16 5281.74 1579.18   4
  -3   1 -15 5699.34 1685.23   4
  -3   1 -14 6339.63 1746.25   4
  -3   1 -13 1546.97 873.548   4
  -3   1 -12 1337.52 844.640   4
  -3   1 -11 3284.90 1170.63   4
  -3   1 -10 21786.5 2406.87   4
  -3   1  -9 6454.87 1357.94   4
  -3   1  -8 33751.0 2859.18   4
  -3   1  -7 25341.5 2359.64   4
  -3   1  -6 9917.27 1331.76   9
  -3   1  -6 12038.6 1595.34   4
  -3   1  -5 429.727 442.039   9
  -3   1  -5 1195.67 706.199   4
  -3   1  -4 15133.1 1523.56   9
  -3   1  -4 16507.9 1733.80   4
  -3   1  -3 50892.6 2803.44   9
  -3   1  -3 47700.4 2914.98   4
  -3   1  -2 41049.1 2588.03   4
  -3   1  -2 42448.4 2466.03   9
  -3   1  -1 118968. 4581.43   9
  -3   1  -1 114159. 4667.57   4
  -3   1   0 42121.6 2522.65   4
  -3   1   0 43780.1 2420.09   9
  -3   1   1 13885.8 1375.07   4
  -3   1   1 13677.1 1358.77   9
  -3   1   2 618.329 455.227   9
  -3   1   2 764.608 692.433   3
  -3   1   2 815.282 467.156   4
  -3   1   3 12089.2 1196.97   4
  -3   1   3 14030.1 1748.66   3
  -3   1   4 40697.4 2328.83   4
  -3   1   4 40116.8 1802.55   8
  -3   1   5 57965.7 3746.24   3
  -3   1   6 45152.9 3360.79   3
  -3   1   7 11435.5 1633.21   3
  -3   1   8 1779.84 878.425   3
  -3   1   9 667.362 467.757   3
  -3   1  10 2434.46 1122.11   3
  -3   1  10-827.539 765.649   1
  -3   1  11 2943.04 1275.37   3
  -3   1  11 1349.38 658.951   1
  -3   1  12 3935.82 1201.37   1
  -3   1  12 4609.93 1290.39   3
  -3   1  13 7973.00 1708.34   1
  -3   1  13 9392.96 1826.53   3
  -3   1  14 3326.68 1296.57   1
  -3   1  14 4452.96 1469.44   3
  -3   1  15 2348.37 1101.41   1
  -3   1  15 3481.27 1398.00   3
  -3   1  16 663.682 818.795   3
  -3   1  16 1832.98 1202.55   1
  -3   1  17 815.926 1102.30   1
  -3   1  17 1641.75 944.836   3
  -3   1  18-828.489 715.739   1
  -3   1  18-354.456 820.098   2
  -3   1  19 2378.74 1597.81   1
  -3   1  19 1222.33 1111.15   2
  -3   1  20-771.580 793.835   1
  -3   1  20 1616.75 1033.58   2
  -3   1  21 233.798 967.843   2
  -3   1  21-606.239 871.318   1
  -3   1  22-431.451 1091.40   2
  -3   2 -20 161.063 841.108   4
  -3   2 -19 1112.56 989.010   4
  -3   2 -18 674.688 862.832   4
  -3   2 -17 1609.36 1036.83   4
  -3   2 -16 1117.28 897.538   4
  -3   2 -15 2250.42 1166.91   4
  -3   2 -14 2735.30 1260.36   4
  -3   2 -13 5059.16 1659.25   4
  -3   2 -12 10091.0 2025.61   4
  -3   2 -11 9646.21 1794.59   4
  -3   2 -10 5132.30 1266.52   4
  -3   2  -9 186.165 576.746   4
  -3   2  -8 1030.84 784.416   9
  -3   2  -8 294.350 657.442   4
  -3   2  -7 9791.34 1530.86   4
  -3   2  -7 10203.9 1498.47   9
  -3   2  -6 27654.9 2404.68   9
  -3   2  -6 29360.9 2524.51   4
  -3   2  -5 40067.3 2859.76   9
  -3   2  -5 39164.8 2800.14   4
  -3   2  -4 49725.6 3068.23   4
  -3   2  -4 52353.0 3183.92   9
  -3   2  -3 47994.0 2867.61   4
  -3   2  -3 49361.7 3037.96   9
  -3   2  -2 17421.8 1574.58   4
  -3   2  -2 17799.5 1779.59   9
  -3   2  -1 12100.8 1424.63   9
  -3   2  -1 11785.8 1259.67   4
  -3   2   0 29002.3 1934.44   4
  -3   2   0 33069.2 2418.47   9
  -3   2   1 74080.0 4179.74   3
  -3   2   1 62018.3 2951.65   4
  -3   2   1 73232.3 3741.31   9
  -3   2   2 57219.5 2699.94   4
  -3   2   2 60437.0 3402.10   9
  -3   2   2 62551.2 3919.20   3
  -3   2   3 37625.5 2065.51   4
  -3   2   3 43646.3 3256.28   3
  -3   2   4 17902.5 1310.45   4
  -3   2   4 19699.7 2242.14   3
  -3   2   5 7475.27 1496.98   3
  -3   2   5 5905.10 729.960   4
  -3   2   6-229.512 265.785   4
  -3   2   6 219.188 547.266   3
  -3   2   7 12867.4 1914.87   3
  -3   2   7 7202.52 641.737   8
  -3   2   8 23990.9 2686.26   3
  -3   2   9 39148.8 3429.26   3
  -3   2  10 25988.2 2898.70   3
  -3   2  11 7735.36 1616.23   3
  -3   2  12 2454.15 1119.00   3
  -3   2  13 2739.33 1160.27   1
  -3   2  13 4853.81 1518.26   3
  -3   2  14 5025.53 1481.67   1
  -3   2  14 5966.96 1668.71   3
  -3   2  15 2818.05 1282.47   3
  -3   2  15 1375.41 888.826   1
  -3   2  16 381.480 995.610   1
  -3   2  16 2440.71 1355.91   3
  -3   2  17 2693.67 1295.48   1
  -3   2  17 151.382 932.285   3
  -3   2  18 1451.17 878.457   3
  -3   2  18-1327.70 888.451   1
  -3   2  19-209.411 802.809   3
  -3   2  19 761.119 942.962   1
  -3   2  20 106.082 759.753   2
  -3   2  20 647.751 1130.82   1
  -3   2  21-1186.47 1088.51   2
  -3   2  21 1184.94 1131.25   1
  -3   2  22-2649.19 1356.94   2
  -3   3 -19-1159.63 1348.02   4
  -3   3 -18 170.610 694.854   4
  -3   3 -17-62.9651 577.267   4
  -3   3 -16 890.169 1017.17   4
  -3   3 -15 2111.02 1168.41   4
  -3   3 -14 2741.28 1376.23   4
  -3   3 -13 1034.58 837.464   4
  -3   3 -12 1047.54 966.683   4
  -3   3 -11 3835.60 1241.91   4
  -3   3 -10 7237.24 1448.24   9
  -3   3 -10 10660.2 1882.24   4
  -3   3  -9 13979.6 2033.91   9
  -3   3  -9 17403.0 2302.69   4
  -3   3  -8 42450.2 3399.98   4
  -3   3  -8 38498.3 3224.58   9
  -3   3  -7 9757.04 1560.85   4
  -3   3  -7 7865.68 1378.23   9
  -3   3  -6 3092.81 808.572   9
  -3   3  -6 2924.83 803.437   4
  -3   3  -5 1636.15 839.168   9
  -3   3  -5 1349.35 607.243   4
  -3   3  -4 19362.8 2083.53   9
  -3   3  -4 15481.3 1669.78   4
  -3   3  -3 31176.9 2667.98   9
  -3   3  -3 31222.3 2317.90   4
  -3   3  -2 37322.9 2838.34   9
  -3   3  -2 36914.6 2379.90   4
  -3   3  -1 30808.6 2054.74   4
  -3   3  -1 35512.9 2855.03   3
  -3   3  -1 33719.4 2738.09   9
  -3   3   0 11953.0 1168.67   4
  -3   3   0 14376.8 1771.08   9
  -3   3   0 13962.5 1821.89   3
  -3   3   1 13585.4 1748.14   9
  -3   3   1 15901.5 1226.92   4
  -3   3   1 17307.0 2041.97   3
  -3   3   2 740.003 671.012   9
  -3   3   2 411.727 756.359   3
  -3   3   2 1024.74 404.625   4
  -3   3   3 8246.37 1507.91   3
  -3   3   3 7787.70 720.223   4
  -3   3   4 28197.8 1337.51   4
  -3   3   4 35445.6 3077.67   3
  -3   3   5 36847.5 1490.78   4
  -3   3   5 43964.7 3624.59   3
  -3   3   6 23970.6 1096.67   4
  -3   3   6 20341.2 1027.80   4
  -3   3   7 5568.45 1313.06   3
  -3   3   7 5289.50 507.862   4
  -3   3   8 622.924 651.241   3
  -3   3   8 526.974 179.804   4
  -3   3   9 1788.08 982.841   3
  -3   3  10 2178.00 1175.26   3
  -3   3  11 6842.04 1712.65   3
  -3   3  12 4898.13 1660.68   3
  -3   3  13 4968.03 1646.89   3
  -3   3  14 197.265 690.391   3
  -3   3  15 2862.53 1257.56   1
  -3   3  15 1467.27 1247.93   3
  -3   3  16 578.205 1040.06   1
  -3   3  16 878.388 742.557   3
  -3   3  17 1063.78 984.526   1
  -3   3  17 1010.29 861.301   3
  -3   3  18 910.035 907.198   1
  -3   3  18-84.8884 755.289   3
  -3   3  19 2064.60 1088.23   1
  -3   3  19 398.198 928.108   3
  -3   3  20 1141.34 1195.99   3
  -3   3  20 1257.85 1142.86   1
  -3   3  21-188.517 768.259   1
  -3   3  22-934.431 1096.45   2
  -3   4 -19 3522.77 1714.01   5
  -3   4 -18-1649.93 1176.12   4
  -3   4 -17-749.053 761.164   4
  -3   4 -16 1453.97 1294.69   4
  -3   4 -15 158.294 527.068   4
  -3   4 -14 1480.72 820.221   4
  -3   4 -13 3820.34 1466.64   4
  -3   4 -12 5055.19 1518.21   4
  -3   4 -11 4405.90 1261.66   9
  -3   4 -11 4558.17 1319.78   4
  -3   4 -10 3886.29 1307.11   4
  -3   4 -10 3193.81 1112.31   9
  -3   4  -9 1251.83 766.693   4
  -3   4  -9 1512.07 849.612   9
  -3   4  -8 1707.14 646.980   4
  -3   4  -8 524.934 579.961   9
  -3   4  -7 7666.39 1530.58   4
  -3   4  -7 6974.18 1464.61   9
  -3   4  -6 12644.5 1739.92   4
  -3   4  -6 12219.6 1890.54   9
  -3   4  -5 28233.4 2580.55   4
  -3   4  -5 30438.6 2871.00   9
  -3   4  -4 32892.6 2964.36   9
  -3   4  -4 31957.7 2776.43   3
  -3   4  -4 31881.1 2554.39   4
  -3   4  -3 16012.0 2141.78   9
  -3   4  -3 16202.6 1730.72   4
  -3   4  -3 17171.4 2010.83   3
  -3   4  -2 2152.15 732.596   4
  -3   4  -2 1008.80 740.314   3
  -3   4  -2 2101.69 863.992   9
  -3   4  -1 5464.16 1201.86   3
  -3   4  -1 6377.52 1282.69   9
  -3   4  -1 6101.25 974.754   4
  -3   4   0 20964.0 1612.24   4
  -3   4   0 21893.1 2390.48   9
  -3   4   0 20920.0 2321.97   3
  -3   4   1 53919.9 3775.27   9
  -3   4   1 44753.2 2306.20   4
  -3   4   1 55661.5 3861.26   3
  -3   4   2 39408.3 3223.26   9
  -3   4   2 33062.5 1702.67   4
  -3   4   2 39818.1 3353.92   3
  -3   4   3 17620.4 994.016   4
  -3   4   3 21121.9 2479.70   9
  -3   4   3 20922.0 2396.45   3
  -3   4   4 6582.23 1562.22   3
  -3   4   5 24.4537 548.371   3
  -3   4   6 1314.88 798.250   3
  -3   4   7 7998.84 1652.33   3
  -3   4   8 13684.5 2290.75   3
  -3   4   9 17093.9 2651.49   3
  -3   4  10 8973.95 2011.85   3
  -3   4  11 3906.50 1573.07   3
  -3   4  12 679.617 839.122   3
  -3   4  13 148.670 840.507   3
  -3   4  14 1646.31 1282.47   3
  -3   4  15 5000.76 1948.03   3
  -3   4  16 1948.84 1286.79   3
  -3   4  17-498.289 706.905   1
  -3   4  17 1625.27 1205.39   3
  -3   4  18 1154.25 1161.72   3
  -3   4  18 542.828 874.222   1
  -3   4  19 1496.52 1214.96   3
  -3   4  19 2280.36 1204.78   1
  -3   4  20-1457.08 970.475   1
  -3   4  20 1181.77 1208.94   3
  -3   4  21 2840.04 1731.56   3
  -3   4  22 1044.24 1176.48   3
  -3   5 -18 455.631 1051.92   5
  -3   5 -17 3758.57 1719.02   5
  -3   5 -17 137.272 637.048   4
  -3   5 -16 65.4250 710.924   4
  -3   5 -16 4151.33 1806.89   5
  -3   5 -15 777.353 650.462   4
  -3   5 -14 1195.08 1017.36   4
  -3   5 -13 244.816 507.284   4
  -3   5 -12 1005.22 913.340   9
  -3   5 -12-533.174 589.423   4
  -3   5 -11 735.459 713.382   4
  -3   5 -11 523.651 842.665   9
  -3   5 -10 5219.54 1461.10   4
  -3   5 -10 3129.48 1155.16   9
  -3   5  -9 7327.79 1476.30   4
  -3   5  -9 6317.57 1268.91   3
  -3   5  -9 7919.51 1714.55   9
  -3   5  -8 7625.91 1625.78   9
  -3   5  -8 7636.60 1577.83   4
  -3   5  -8 7196.00 1359.57   3
  -3   5  -7 2425.44 1052.60   9
  -3   5  -7 3619.23 973.296   4
  -3   5  -7 3999.12 970.213   3
  -3   5  -6 4531.73 1274.74   9
  -3   5  -6 4498.46 1075.97   3
  -3   5  -6 3357.39 910.886   4
  -3   5  -5 1242.15 690.435   4
  -3   5  -5 1100.85 523.238   3
  -3   5  -5 1671.24 823.065   9
  -3   5  -4 4406.03 977.753   4
  -3   5  -4 6731.63 1459.19   9
  -3   5  -4 5524.78 1214.76   3
  -3   5  -3 14324.0 1650.59   4
  -3   5  -3 18507.4 2344.57   9
  -3   5  -3 16796.0 2071.54   3
  -3   5  -2 19050.2 2361.58   9
  -3   5  -2 20671.1 2350.45   3
  -3   5  -2 19122.8 1791.03   4
  -3   5  -1 17561.0 2462.79   9
  -3   5  -1 16869.0 1573.70   4
  -3   5  -1 20769.7 2438.43   3
  -3   5   0 12233.6 1240.74   4
  -3   5   0 13948.0 1941.40   3
  -3   5   0 13630.6 2105.08   9
  -3   5   1 5324.31 1379.05   9
  -3   5   1 5840.73 1396.97   3
  -3   5   2 490.175 553.459   9
  -3   5   2-467.172 636.933   3
  -3   5   3 6878.09 1400.67   3
  -3   5   3 6520.34 1577.98   9
  -3   5   4 20327.4 2600.94   3
  -3   5   5 22973.9 2741.48   3
  -3   5   6 14338.5 2309.71   3
  -3   5   7 5698.48 1469.02   3
  -3   5   8 816.359 919.098   3
  -3   5   9 1328.25 1045.32   3
  -3   5  10 3449.93 1346.80   3
  -3   5  11 6397.56 2037.37   3
  -3   5  12 1455.70 1085.17   3
  -3   5  13 4819.36 1822.90   3
  -3   5  14 1726.19 1268.60   3
  -3   5  15 4372.26 1852.51   3
  -3   5  16 2836.65 1528.31   3
  -3   5  17 2291.61 1486.54   3
  -3   5  18 301.536 963.516   1
  -3   5  18 2093.41 1485.31   3
  -3   5  19-358.945 790.895   1
  -3   5  19 994.599 1016.69   3
  -3   5  20 62.0409 689.253   3
  -3   5  20 144.578 632.020   1
  -3   5  21 1533.74 1436.45   3
  -3   6 -17 1.18621 539.617   5
  -3   6 -16 118.003 676.327   5
  -3   6 -15 1410.54 1188.56   5
  -3   6 -14 2206.32 1278.80   5
  -3   6 -13 1393.13 990.973   5
  -3   6 -12 3244.36 1392.04   9
  -3   6 -11 1158.52 856.407   4
  -3   6 -11 2397.87 1148.67   9
  -3   6 -10-535.163 741.231   4
  -3   6 -10 1420.12 805.703   9
  -3   6  -9-232.140 452.872   4
  -3   6  -9 721.621 782.288   9
  -3   6  -8 918.438 573.412   4
  -3   6  -8 2082.78 1088.35   9
  -3   6  -8 1465.74 731.270   3
  -3   6  -7 4051.65 1036.22   3
  -3   6  -7 3620.66 1190.99   9
  -3   6  -7 2662.11 938.868   4
  -3   6  -6 5175.01 1249.35   4
  -3   6  -6 7919.88 1757.62   9
  -3   6  -6 7540.40 1446.07   3
  -3   6  -5 6987.03 1315.57   4
  -3   6  -5 7698.96 1432.26   3
  -3   6  -5 7314.65 1698.77   9
  -3   6  -4 7372.71 1681.56   9
  -3   6  -4 4257.28 1134.75   3
  -3   6  -3 3211.03 1179.10   9
  -3   6  -3 4060.84 1065.22   3
  -3   6  -2 600.078 558.275   3
  -3   6  -2 489.015 488.888   9
  -3   6  -1 2838.94 1157.21   9
  -3   6  -1 3442.88 1035.95   3
  -3   6   0 12104.3 2138.56   9
  -3   6   0 12620.1 1952.97   3
  -3   6   1 20417.8 2661.36   9
  -3   6   1 21079.6 2566.89   3
  -3   6   2 12900.2 2249.93   9
  -3   6   2 12303.5 2013.87   3
  -3   6   3 4548.49 1574.29   9
  -3   6   3 5591.91 1368.03   3
  -3   6   4 1120.72 843.389   3
  -3   6   4 767.742 515.749   9
  -3   6   5-98.3950 600.236   3
  -3   6   6 2424.56 1153.93   3
  -3   6   7 5101.22 1461.86   3
  -3   6   8 5258.28 1543.20   3
  -3   6   9 6471.81 1931.49   3
  -3   6  10 3333.59 1383.51   3
  -3   6  11 2328.50 1204.42   3
  -3   6  12 1163.35 1061.68   3
  -3   6  13 1109.75 1551.72   3
  -3   6  14 2255.69 1404.43   3
  -3   6  15 3837.94 1707.93   3
  -3   6  16 2435.96 1491.60   3
  -3   6  17 1928.43 1135.22   3
  -3   6  18 2880.35 1758.43   3
  -3   6  19 628.340 855.669   1
  -3   6  19-514.078 965.570   3
  -3   7 -16 1297.74 1085.53   5
  -3   7 -15 1992.61 1243.87   5
  -3   7 -14-802.743 849.875   5
  -3   7 -13 634.496 733.269   5
  -3   7 -13 310.191 946.003   9
  -3   7 -12-718.504 841.123   9
  -3   7 -12 391.865 748.097   5
  -3   7 -11 898.641 843.087   5
  -3   7 -11-171.595 681.479   9
  -3   7 -10 638.643 747.960   5
  -3   7 -10 1113.50 686.831   9
  -3   7  -9 3098.06 1411.73   9
  -3   7  -9 4085.13 1362.31   5
  -3   7  -8 3174.71 1152.86   5
  -3   7  -8 5052.62 1476.73   9
  -3   7  -7 2874.78 1244.13   9
  -3   7  -7 4811.83 1289.95   5
  -3   7  -6 490.280 617.840   5
  -3   7  -6 1379.79 730.640   3
  -3   7  -6 1469.75 761.367   9
  -3   7  -5 2312.00 882.289   5
  -3   7  -5 2756.71 1432.60   9
  -3   7  -5 1909.20 822.486   3
  -3   7  -4 6842.09 1669.08   9
  -3   7  -4 3601.47 1155.04   3
  -3   7  -3 12168.8 2355.90   9
  -3   7  -3 9847.53 1703.06   3
  -3   7  -2 10498.0 2012.83   9
  -3   7  -2 9369.52 1759.47   3
  -3   7  -1 5247.43 1694.82   9
  -3   7  -1 5329.09 1249.99   3
  -3   7   0 2066.32 806.970   3
  -3   7   0 2207.78 1028.39   9
  -3   7   1 589.080 1009.22   9
  -3   7   1 1052.20 713.189   3
  -3   7   2 756.800 846.472   3
  -3   7   2 1706.74 995.999   9
  -3   7   3 1228.65 733.365   3
  -3   7   3 1770.77 1070.81   9
  -3   7   4 9351.37 2071.82   9
  -3   7   4 8602.79 1825.83   3
  -3   7   5 10886.1 2087.03   3
  -3   7   5 6437.61 1778.04   9
  -3   7   6 7992.85 1876.11   3
  -3   7   7 2218.59 1214.52   3
  -3   7   8-219.813 632.649   3
  -3   7   9 1042.34 830.619   3
  -3   7  10 1799.88 1411.45   3
  -3   7  11 2438.20 1462.26   3
  -3   7  12 3994.33 1833.22   3
  -3   7  13 899.495 1311.76   3
  -3   7  14 1262.18 1242.23   3
  -3   7  15 3620.53 1834.11   3
  -3   7  16-1985.54 1441.08   3
  -3   7  17 1413.06 1228.43   3
  -3   7  18-102.226 979.028   3
  -3   8 -13 1769.60 1465.46   9
  -3   8 -12 656.152 1014.38   9
  -3   8 -11 1698.14 1274.59   9
  -3   8 -10 1750.57 1021.36   9
  -3   8  -9 193.183 692.578   9
  -3   8  -8 1969.29 1162.04   9
  -3   8  -7 3482.86 1458.30   9
  -3   8  -6 2460.19 1231.70   9
  -3   8  -5 279.707 942.258   9
  -3   8  -4 384.757 501.527   3
  -3   8  -4 2247.38 1183.04   9
  -3   8  -3 1168.27 574.609   9
  -3   8  -3 887.934 676.665   3
  -3   8  -2-608.719 762.843   9
  -3   8  -2-970.341 784.429   3
  -3   8  -1 2172.49 942.233   9
  -3   8  -1-228.360 502.212   3
  -3   8   0 3845.72 1583.74   9
  -3   8   0 4189.06 1262.24   3
  -3   8   1 3412.02 1360.21   9
  -3   8   1 5560.13 1398.04   3
  -3   8   2 4375.05 1359.11   3
  -3   8   2 4854.62 1527.56   9
  -3   8   3 3554.24 1481.04   9
  -3   8   3 1752.06 1044.33   3
  -3   8   4 1478.37 1141.47   9
  -3   8   4 167.313 725.156   3
  -3   8   5-1835.71 913.271   3
  -3   8   5 95.2624 563.951   9
  -3   8   6 495.349 931.246   9
  -3   8   6 2562.45 1184.82   3
  -3   8   7 1202.97 1202.03   3
  -3   8   8 3040.94 1288.88   3
  -3   8   9 1770.76 952.034   3
  -3   8  10 3233.78 1409.44   3
  -3   8  11 968.798 947.569   3
  -3   8  12 241.129 899.355   3
  -3   8  13 84.6672 1096.17   3
  -3   8  14 923.146 1403.61   3
  -3   8  15 778.087 1468.94   3
  -3   8  16 2754.85 1727.88   3
  -3   9 -10 1465.49 1075.84   9
  -3   9  -9 367.703 658.493   9
  -3   9  -8-3.25362 578.795   9
  -3   9  -7 4664.87 1742.67   9
  -3   9  -6 567.367 818.286   9
  -3   9  -5 1901.66 1236.55   9
  -3   9  -4 2518.35 1355.15   9
  -3   9  -3 5236.33 1794.31   9
  -3   9  -2 3079.41 1309.39   9
  -3   9  -2 973.741 778.881   3
  -3   9  -1 2390.48 1163.10   9
  -3   9  -1 2049.32 1085.99   3
  -3   9   0 775.500 650.712   3
  -3   9   0 1386.14 1240.36   9
  -3   9   1-38.2281 868.633   9
  -3   9   1-864.843 746.676   3
  -3   9   2 951.781 1079.11   9
  -3   9   2 1539.16 939.463   3
  -3   9   3 1854.16 1045.76   9
  -3   9   3 1006.44 1014.47   3
  -3   9   4 3095.78 1500.02   9
  -3   9   4 2979.99 1256.20   3
  -3   9   5 3164.12 1525.57   9
  -3   9   5 1771.39 1020.01   3
  -3   9   6 1352.22 1167.85   9
  -3   9   6 576.436 850.277   3
  -3   9   7-1142.73 1206.91   9
  -3   9   7 188.697 894.275   3
  -3   9   8 1699.28 1107.04   9
  -3   9   8 3139.78 1662.30   3
  -3   9   9-535.885 1037.38   3
  -3   9  10 291.330 779.215   3
  -3   9  11 4291.05 1856.19   3
  -3   9  12 900.598 1182.34   3
  -3   9  13 272.835 1270.22   3
  -3   9  14-242.875 869.930   3
  -3  10  -7 1273.67 956.932   9
  -3  10  -6 757.244 691.880   9
  -3  10  -5 2173.64 1318.14   9
  -3  10  -4 804.907 879.966   9
  -3  10  -3 219.325 827.276   9
  -3  10  -2 1549.83 965.113   9
  -3  10  -1 2444.59 1537.70   9
  -3  10   0 2661.25 1533.17   9
  -3  10   1 1944.70 1041.07   9
  -3  10   1 1104.05 799.931   3
  -3  10   2 742.440 1111.28   9
  -3  10   2-1172.70 992.098   3
  -3  10   3 4491.34 1670.13   9
  -3  10   3 1510.52 1009.71   3
  -3  10   4 1633.74 1268.12   9
  -3  10   4 891.439 655.460   3
  -3  10   5 3521.02 1784.11   9
  -3  10   5-1348.96 980.619   3
  -3  10   6 44.1567 910.390   9
  -3  10   6 256.316 827.126   3
  -3  10   7-115.615 719.444   9
  -3  10   7 485.292 922.331   3
  -3  10   8 911.176 1362.72   9
  -3  10   8 1250.83 1139.09   3
  -3  10   9 465.942 719.620   9
  -3  10   9 591.573 1148.61   3
  -3  10  10-598.338 779.618   3
  -3  10  11-246.390 905.100   3
  -3  11  -1-855.142 1066.61   9
  -3  11   0 2476.66 1279.20   9
  -3  11   1 264.348 798.716   9
  -3  11   2 1929.24 1246.76   9
  -3  11   3 816.840 1094.40   9
  -3  11   3 2527.70 1307.24   3
  -3  11   4 2935.70 1655.97   9
  -3  11   4-585.059 876.768   3
  -3  11   5 1784.42 1556.23   9
  -3  11   5-126.895 789.739   3
  -3  11   6 3084.47 1561.86   9
  -3  11   6-34.2216 779.726   3
  -3  11   7-180.270 864.664   3
  -3  11   8-366.461 939.656   3
  -2 -13  -8 947.146 884.380   7
  -2 -13  -7 554.427 711.866   7
  -2 -13  -6 336.321 796.512   7
  -2 -13  -5 396.598 909.377   7
  -2 -13  -4 1381.66 1208.21   7
  -2 -13  -3 1123.43 1198.30   7
  -2 -13  -2-180.033 878.914   7
  -2 -13  -1-422.556 901.426   2
  -2 -13   0 66.6633 915.420   2
  -2 -12  -9 633.595 612.303   7
  -2 -12  -8 2194.98 1272.44   7
  -2 -12  -7 250.802 618.091   7
  -2 -12  -6 704.175 781.077   7
  -2 -12  -5-225.873 711.521   7
  -2 -12  -4 774.914 953.712   7
  -2 -12  -3 3316.25 1533.51   7
  -2 -12  -2 2050.28 1379.01   2
  -2 -12  -2 3812.37 1662.31   7
  -2 -12  -1-533.996 1118.06   2
  -2 -12   0-443.454 890.987   2
  -2 -12   1-555.991 829.994   2
  -2 -12   2 647.924 1239.45   2
  -2 -12   3 1609.15 1387.43   2
  -2 -12   4 1663.43 1251.48   2
  -2 -12   5 536.477 1264.57   2
  -2 -11 -13 222.857 655.542  10
  -2 -11 -12 1679.97 1135.66  10
  -2 -11 -11 744.705 971.492  10
  -2 -11 -10 2113.89 1127.37  10
  -2 -11 -10 389.611 447.373   7
  -2 -11  -9 572.557 1011.14  10
  -2 -11  -9-266.871 701.868   7
  -2 -11  -8-435.196 678.153   7
  -2 -11  -7 2055.66 1102.33   7
  -2 -11  -6 2770.33 1197.75   7
  -2 -11  -5 4459.31 1655.82   7
  -2 -11  -4 4368.94 1678.23   7
  -2 -11  -3 2134.43 1363.38   7
  -2 -11  -3 1133.48 1008.29   2
  -2 -11  -2-728.474 766.043   2
  -2 -11  -1 2168.96 1372.81   2
  -2 -11   0 3638.29 1702.33   2
  -2 -11   1 5977.05 2118.95   2
  -2 -11   2 3564.57 1637.74   2
  -2 -11   3 3153.16 1754.47   2
  -2 -11   4 1710.77 1226.49   2
  -2 -11   5 1971.17 1425.62   2
  -2 -11   6 1299.77 1486.09   2
  -2 -11   7 1997.34 1350.53   2
  -2 -11   8-1600.35 1386.82   2
  -2 -11   9 2442.72 2170.62   2
  -2 -10 -16 2339.98 1097.10  10
  -2 -10 -15 877.297 1071.82  10
  -2 -10 -14 2467.34 1572.60  10
  -2 -10 -13 1591.04 1449.20  10
  -2 -10 -12 2935.82 1628.84  10
  -2 -10 -11 2698.17 1519.73  10
  -2 -10 -11 1188.68 982.925   7
  -2 -10 -10 1187.83 541.866   7
  -2 -10 -10 2645.58 1309.41  10
  -2 -10  -9 5726.42 1524.29   7
  -2 -10  -9 5425.43 1837.67  10
  -2 -10  -8 3585.05 1252.65   7
  -2 -10  -8 4184.49 1607.76  10
  -2 -10  -7 1566.82 996.079   7
  -2 -10  -7 1450.96 863.165   4
  -2 -10  -7 2311.16 1215.12  10
  -2 -10  -6 575.408 529.683   4
  -2 -10  -6-297.973 570.439   7
  -2 -10  -6 1078.07 935.281  10
  -2 -10  -5 2029.47 1201.34   7
  -2 -10  -5-691.734 746.550   4
  -2 -10  -4 1296.85 769.731   2
  -2 -10  -4 3335.67 1431.58   7
  -2 -10  -4 1193.56 828.854   4
  -2 -10  -3 5173.02 1438.10   2
  -2 -10  -2 8758.23 1882.05   2
  -2 -10  -1 8985.46 1963.71   2
  -2 -10   0 5422.67 1683.08   2
  -2 -10   1 377.457 895.725   2
  -2 -10   2 1153.26 879.732   2
  -2 -10   3 3731.51 1652.90   2
  -2 -10   4 2940.50 1676.14   2
  -2 -10   5 4675.73 1741.94   2
  -2 -10   6 2224.32 1563.96   2
  -2 -10   7 93.7098 1050.04   2
  -2 -10   8 2153.85 1615.89   2
  -2 -10   9 1759.41 1581.56   2
  -2 -10  10 1990.76 1525.55   2
  -2 -10  11 1364.88 1741.17   2
  -2  -9 -18 2061.44 1433.04  10
  -2  -9 -17-56.2071 612.064  10
  -2  -9 -16 730.272 897.740  10
  -2  -9 -15 1606.97 1173.85  10
  -2  -9 -14 1615.29 1373.24  10
  -2  -9 -13 2084.52 1437.51  10
  -2  -9 -12 3425.63 1397.73  10
  -2  -9 -11 4598.17 1574.15  10
  -2  -9 -11 2379.01 913.754   7
  -2  -9 -10 144.498 501.517   7
  -2  -9 -10 403.982 606.367   4
  -2  -9 -10 924.570 530.211  10
  -2  -9  -9 1483.04 1134.09  10
  -2  -9  -9-719.133 702.047   4
  -2  -9  -9 1227.66 833.996   7
  -2  -9  -8 3777.73 1231.62   4
  -2  -9  -8 2790.17 1106.69   7
  -2  -9  -8 1723.82 1080.36  10
  -2  -9  -7 4599.55 1156.70   4
  -2  -9  -7 8148.01 1753.85   7
  -2  -9  -7 8002.16 1866.64  10
  -2  -9  -6 9547.88 2019.02  10
  -2  -9  -6 8728.23 1706.54   4
  -2  -9  -6 10215.7 1926.04   7
  -2  -9  -5 12152.1 2088.98   7
  -2  -9  -5 8441.93 1734.41   4
  -2  -9  -5 11762.5 2195.60  10
  -2  -9  -4 5669.72 1289.20   2
  -2  -9  -4 6298.53 1419.82   4
  -2  -9  -4 7333.90 1751.22  10
  -2  -9  -3 2452.86 1110.65   2
  -2  -9  -3 1549.78 740.356  10
  -2  -9  -2 320.164 787.224   2
  -2  -9  -1 2530.68 1300.84   2
  -2  -9   0 5729.90 1555.01   2
  -2  -9   1 8387.91 1867.38   2
  -2  -9   2 8346.59 1847.15   2
  -2  -9   3 7446.85 1933.46   2
  -2  -9   4 3767.88 1485.02   2
  -2  -9   5 2486.25 1526.26   2
  -2  -9   6 3365.55 1567.66   2
  -2  -9   7 3481.79 1731.31   2
  -2  -9   8 3031.73 1323.65   2
  -2  -9   9 4032.57 1571.65   2
  -2  -9  10 2544.53 1636.85   2
  -2  -9  11 3406.05 1541.76   2
  -2  -9  12-1524.55 1503.87   2
  -2  -9  13 3181.62 1817.37   2
  -2  -9  14 189.490 1385.20   2
  -2  -8 -19 46.0635 856.748  10
  -2  -8 -18-31.2100 632.924  10
  -2  -8 -17 385.099 1095.41  10
  -2  -8 -16 2048.11 1274.38  10
  -2  -8 -15 2765.51 1407.55  10
  -2  -8 -14 2269.08 1286.33  10
  -2  -8 -13 979.826 709.179   4
  -2  -8 -13 1158.53 1051.04  10
  -2  -8 -12-360.942 568.574   4
  -2  -8 -12 652.367 518.088   7
  -2  -8 -12 731.539 815.544  10
  -2  -8 -11 3957.79 1445.51  10
  -2  -8 -11 3101.46 1084.60   4
  -2  -8 -11 3656.87 1010.83   7
  -2  -8 -10 6905.65 1423.40   4
  -2  -8 -10 11887.1 1827.61   7
  -2  -8 -10 12794.0 2433.56  10
  -2  -8  -9 10963.9 1771.33   7
  -2  -8  -9 10056.8 2040.81  10
  -2  -8  -9 7695.79 1476.88   4
  -2  -8  -8 7833.29 1532.82   4
  -2  -8  -8 6711.12 1418.93   7
  -2  -8  -8 9199.61 2044.61  10
  -2  -8  -7 4968.76 1213.30   4
  -2  -8  -7 5766.40 1319.91   7
  -2  -8  -7 4061.21 1259.73  10
  -2  -8  -6 2449.39 1043.08  10
  -2  -8  -6 1673.95 962.820   4
  -2  -8  -6 3875.06 1349.85   7
  -2  -8  -5 1426.06 677.464   2
  -2  -8  -5 2260.03 957.822   7
  -2  -8  -5 760.518 790.188   4
  -2  -8  -5 1605.60 1098.85  10
  -2  -8  -4 9525.82 1601.13   2
  -2  -8  -4 7450.55 1478.31   4
  -2  -8  -4 9846.98 1893.14  10
  -2  -8  -3 29524.3 2840.98   2
  -2  -8  -3 22941.8 2755.30  10
  -2  -8  -2 34373.6 3194.07   2
  -2  -8  -2 29469.5 3038.38  10
  -2  -8  -1 20276.0 2405.90  10
  -2  -8  -1 16620.2 2311.23   2
  -2  -8   0 5938.11 1527.75   2
  -2  -8   1 324.752 864.877   2
  -2  -8   2 2932.44 1135.72   2
  -2  -8   3 8666.00 1980.40   2
  -2  -8   4 9160.04 1905.32   2
  -2  -8   5 5033.08 1576.14   2
  -2  -8   6 5708.85 1848.43   2
  -2  -8   7 3523.23 1536.43   2
  -2  -8   8-78.0605 854.180   2
  -2  -8   9 1648.11 820.633   2
  -2  -8  10 385.112 960.007   2
  -2  -8  11 1259.23 775.889   2
  -2  -8  12-692.607 1003.85   2
  -2  -8  13-1107.45 1425.32   2
  -2  -8  14-131.522 1212.91   2
  -2  -8  15 3115.47 1377.63   1
  -2  -8  15-894.349 1098.52   2
  -2  -8  16 1355.15 1332.63   1
  -2  -8  16-2509.70 1472.09   2
  -2  -7 -21-658.517 809.488  10
  -2  -7 -20 2331.37 1443.05  10
  -2  -7 -19 1953.01 1221.46  10
  -2  -7 -18 1202.55 1086.08  10
  -2  -7 -17 1248.04 1077.92  10
  -2  -7 -16 667.829 802.598  10
  -2  -7 -16 615.523 561.540   4
  -2  -7 -15 1068.34 687.081   4
  -2  -7 -15 1516.22 1130.27  10
  -2  -7 -14 1702.07 778.626   4
  -2  -7 -14 3788.64 1376.00  10
  -2  -7 -13 4913.62 1601.79  10
  -2  -7 -13 2535.76 902.797   4
  -2  -7 -12 2623.24 732.208   7
  -2  -7 -12 3248.58 1019.62   4
  -2  -7 -12 4030.42 1397.03  10
  -2  -7 -11 2558.80 785.800   4
  -2  -7 -11 2738.25 814.692   7
  -2  -7 -11 2979.98 1179.14  10
  -2  -7 -10 672.986 471.857   7
  -2  -7 -10 291.346 582.867   4
  -2  -7 -10-93.2930 497.704  10
  -2  -7  -9-178.328 378.809   7
  -2  -7  -9-713.173 617.995  10
  -2  -7  -9 23.6889 398.226   4
  -2  -7  -8 3211.75 1233.36  10
  -2  -7  -8 3878.60 1171.53   4
  -2  -7  -8 3274.34 896.995   7
  -2  -7  -7 16784.9 2094.72   4
  -2  -7  -7 20946.0 2672.50  10
  -2  -7  -7 20066.3 2180.98   7
  -2  -7  -6 27765.1 2679.19   4
  -2  -7  -6 31749.0 2839.39   7
  -2  -7  -6 32394.1 3232.26  10
  -2  -7  -5 26277.1 2359.82   2
  -2  -7  -5 28201.1 2904.75  10
  -2  -7  -5 23646.7 2509.52   4
  -2  -7  -4 13832.9 1878.20   2
  -2  -7  -4 15538.0 2122.74  10
  -2  -7  -4 14425.7 1940.83   4
  -2  -7  -3 3921.30 1154.73   2
  -2  -7  -3 2481.59 1002.44  10
  -2  -7  -2 2711.44 984.677   2
  -2  -7  -2 2518.71 927.950  10
  -2  -7  -1 9411.59 1649.22   2
  -2  -7  -1 10121.1 1643.00  10
  -2  -7   0 21906.1 2438.24   2
  -2  -7   0 23620.9 2327.03  10
  -2  -7   1 32173.3 3061.40   2
  -2  -7   2 23407.8 2779.49   2
  -2  -7   3 9908.76 1930.48   2
  -2  -7   4 246.784 858.149   2
  -2  -7   5-864.671 890.951   2
  -2  -7   6 4047.94 1226.12   2
  -2  -7   7 10487.9 2041.04   2
  -2  -7   8 8089.98 1956.83   2
  -2  -7   9 4887.74 1461.43   1
  -2  -7   9 6952.18 1937.90   2
  -2  -7  10 3197.56 1321.51   2
  -2  -7  10 3433.45 1548.41   1
  -2  -7  11 1000.33 987.298   1
  -2  -7  11 866.959 1117.50   2
  -2  -7  12 2459.03 1359.76   1
  -2  -7  12 1321.88 1341.05   2
  -2  -7  13 2561.83 1613.99   2
  -2  -7  13 944.093 740.773   1
  -2  -7  14 981.097 1374.17   2
  -2  -7  14 1834.90 1122.67   1
  -2  -7  15 2493.61 1499.54   1
  -2  -7  15 3487.53 1779.38   2
  -2  -7  16 1587.05 1470.90   2
  -2  -7  16-977.385 835.526   1
  -2  -7  17 2040.77 1815.19   2
  -2  -7  17 1756.33 1217.68   1
  -2  -6 -22-778.532 759.048  10
  -2  -6 -21-18.4914 716.460  10
  -2  -6 -20 405.095 514.626  10
  -2  -6 -19 170.903 600.622  10
  -2  -6 -18-197.908 572.462   4
  -2  -6 -18 1512.02 981.786  10
  -2  -6 -17 2583.94 963.438  10
  -2  -6 -17 1116.24 761.945   4
  -2  -6 -16 2406.85 941.733   4
  -2  -6 -15 3282.28 1118.28   4
  -2  -6 -14 3329.56 998.770   4
  -2  -6 -13 890.619 657.478   4
  -2  -6 -12 1363.22 456.292   7
  -2  -6 -12 2257.35 951.899   4
  -2  -6 -11 7321.35 1096.52   7
  -2  -6 -11 7745.38 1428.20   4
  -2  -6 -10 14847.2 1897.77   4
  -2  -6 -10 19406.4 1856.26   7
  -2  -6  -9 22064.3 2303.13   4
  -2  -6  -9 23646.3 2108.82   7
  -2  -6  -8 21826.4 2277.81   4
  -2  -6  -8 23754.7 2134.60   7
  -2  -6  -7 9024.30 1537.67   4
  -2  -6  -7 7893.95 1250.32   7
  -2  -6  -6 90.2309 451.376   4
  -2  -6  -6 523.924 578.580   7
  -2  -6  -5 6377.34 1107.58   2
  -2  -6  -5 7804.65 1349.69   4
  -2  -6  -5 9190.19 1639.76  10
  -2  -6  -4 33273.0 2801.33   4
  -2  -6  -4 39564.7 2731.67   2
  -2  -6  -4 36094.8 3066.64  10
  -2  -6  -3 61208.5 3993.37  10
  -2  -6  -3 60883.8 3590.29   2
  -2  -6  -2 52017.3 3543.96  10
  -2  -6  -2 49706.4 3256.44   2
  -2  -6  -1 39775.8 3000.58   2
  -2  -6  -1 42131.8 3052.19  10
  -2  -6   0 13199.5 1657.65  10
  -2  -6   0 9729.81 682.062   6
  -2  -6   0 12492.2 1719.24   2
  -2  -6   1-175.002 625.649   2
  -2  -6   1 2.78404 434.293  10
  -2  -6   2 5525.87 1067.38  10
  -2  -6   2 4015.70 1088.63   2
  -2  -6   3 19712.3 2345.54   2
  -2  -6   4 37706.6 3321.30   2
  -2  -6   5 43829.3 3724.56   2
  -2  -6   6 40522.5 3331.18   1
  -2  -6   6 39276.5 3643.56   2
  -2  -6   7 1564.00 901.989   1
  -2  -6   7 3865.99 1310.20   2
  -2  -6   8 962.628 1098.14   2
  -2  -6   8-198.266 582.200   1
  -2  -6   9 8976.06 1988.60   2
  -2  -6   9 7527.47 1626.25   1
  -2  -6  10 8765.46 2064.71   2
  -2  -6  10 9637.83 1929.52   1
  -2  -6  11 4597.12 1628.29   2
  -2  -6  11 4775.49 1486.52   1
  -2  -6  12 1688.30 1155.12   1
  -2  -6  12 1305.49 853.170   2
  -2  -6  13 98.3765 933.755   1
  -2  -6  13-658.558 776.955   2
  -2  -6  14 853.312 1304.72   2
  -2  -6  14 1775.84 1079.46   1
  -2  -6  15-862.932 1115.21   2
  -2  -6  15 448.533 1007.69   1
  -2  -6  16 569.340 1030.23   2
  -2  -6  16 1668.98 1025.59   1
  -2  -6  17-798.522 879.005   1
  -2  -6  17 935.930 1444.84   2
  -2  -6  18-1059.75 1010.15   2
  -2  -6  18 298.274 718.412   1
  -2  -6  19-975.110 1007.94   2
  -2  -6  19 1822.09 1599.90   1
  -2  -5 -23 832.922 695.145  10
  -2  -5 -22 546.139 874.092  10
  -2  -5 -21-314.336 551.669  10
  -2  -5 -21 622.797 746.883   4
  -2  -5 -20 1553.54 929.802   4
  -2  -5 -20 1153.46 1146.38  10
  -2  -5 -19 577.154 668.096   4
  -2  -5 -18 223.579 509.071   4
  -2  -5 -17 935.724 641.225   4
  -2  -5 -16 747.080 703.702   4
  -2  -5 -15 3071.20 1045.07   4
  -2  -5 -14 8245.70 1571.94   4
  -2  -5 -13 11251.4 1783.28   4
  -2  -5 -13 10060.1 1193.83   7
  -2  -5 -12 10562.3 1676.89   4
  -2  -5 -12 11853.6 1240.51   7
  -2  -5 -11 4705.63 1130.39   4
  -2  -5 -11 5345.51 811.010   7
  -2  -5 -10 71.6074 567.056   4
  -2  -5 -10 102.430 254.713   7
  -2  -5  -9 1904.39 576.480   4
  -2  -5  -9 2188.94 649.485   7
  -2  -5  -8 29881.5 2616.45   4
  -2  -5  -8 28228.5 2015.79   7
  -2  -5  -7 34677.0 2800.48   4
  -2  -5  -7 31725.1 2279.60   7
  -2  -5  -6 34681.8 2739.22   4
  -2  -5  -6 33217.0 2273.10   7
  -2  -5  -5 27530.7 1947.74   2
  -2  -5  -5 26569.1 2365.87   4
  -2  -5  -4 17308.8 1578.80   2
  -2  -5  -4 18521.1 1934.98   4
  -2  -5  -3 6741.55 1144.99   2
  -2  -5  -2 624.349 588.953   2
  -2  -5  -1 18576.1 1835.28   2
  -2  -5  -1 15626.0 907.386   6
  -2  -5   0 93509.7 4578.02   2
  -2  -5   0 85891.7 3016.97   6
  -2  -5   1 88299.5 4552.87   2
  -2  -5   1 88229.4 4052.84  10
  -2  -5   2 50667.3 3449.53   2
  -2  -5   2 53615.4 2905.84  10
  -2  -5   3 13894.3 1292.81  10
  -2  -5   3 12488.5 1796.05   2
  -2  -5   4 1164.25 746.493   1
  -2  -5   4 63.7312 136.894   3
  -2  -5   4 47.7812 616.194   2
  -2  -5   5 1956.39 245.217   3
  -2  -5   5 2737.56 307.769   3
  -2  -5   5 4362.60 1154.35   1
  -2  -5   5 4439.09 1070.70   2
  -2  -5   6 13404.4 1864.29   1
  -2  -5   6 13683.9 2002.51   2
  -2  -5   7 5835.94 1359.85   2
  -2  -5   7 6362.02 1284.93   1
  -2  -5   8 9269.79 1653.31   1
  -2  -5   8 7878.53 1619.10   2
  -2  -5   9 13720.1 2008.95   1
  -2  -5   9 13457.7 2232.31   2
  -2  -5  10 11903.8 1998.29   1
  -2  -5  10 7983.76 1836.33   2
  -2  -5  11 2848.32 1164.95   1
  -2  -5  11 1958.21 1033.30   2
  -2  -5  12 2771.29 1206.87   1
  -2  -5  12 55.6302 790.596   2
  -2  -5  13 2371.52 933.944   1
  -2  -5  13 2464.58 1270.37   2
  -2  -5  14 2578.39 1216.62   1
  -2  -5  14 2905.82 1410.19   2
  -2  -5  15 3764.71 1402.32   1
  -2  -5  15 1034.65 1122.44   2
  -2  -5  16 2842.94 1439.53   1
  -2  -5  16 1129.35 1200.26   2
  -2  -5  17 1479.32 1209.02   1
  -2  -5  17 65.8757 1009.31   2
  -2  -5  18 558.944 1103.80   1
  -2  -5  18 542.927 1014.93   2
  -2  -5  19-1755.03 1275.26   1
  -2  -5  19 1347.38 1391.85   2
  -2  -5  20 1240.82 1144.63   2
  -2  -4 -23 1917.81 1389.79  10
  -2  -4 -22 1434.22 1016.24   4
  -2  -4 -21 1065.66 883.784   4
  -2  -4 -20 561.499 865.812   4
  -2  -4 -19 2803.59 1236.51   4
  -2  -4 -18 488.504 639.490   4
  -2  -4 -17 1330.68 702.740   4
  -2  -4 -16 1666.83 898.960   4
  -2  -4 -15 3923.19 1185.54   4
  -2  -4 -14 1174.61 754.352   4
  -2  -4 -13 760.586 652.852   4
  -2  -4 -13 604.041 322.508   7
  -2  -4 -12 3097.98 890.257   4
  -2  -4 -12 1731.77 450.432   7
  -2  -4 -11 8811.33 1430.28   4
  -2  -4 -11 7792.41 900.396   7
  -2  -4 -10 22122.2 2290.38   4
  -2  -4 -10 24707.0 1574.02   7
  -2  -4  -9 31302.9 2690.84   4
  -2  -4  -9 37927.2 1985.07   7
  -2  -4  -8 39103.9 2084.43   7
  -2  -4  -8 34407.8 2756.00   4
  -2  -4  -7 15693.8 1779.95   4
  -2  -4  -7 15282.3 1277.12   7
  -2  -4  -6 1933.95 495.719   7
  -2  -4  -6 3013.07 886.673   4
  -2  -4  -5 18422.0 1317.80   2
  -2  -4  -5 20937.1 1986.93   4
  -2  -4  -4 109371. 4034.16   2
  -2  -4  -4 106551. 4948.27   4
  -2  -4  -3 171731. 6601.76   4
  -2  -4  -3 178313. 5834.81   2
  -2  -4  -2 143080. 5071.28   2
  -2  -4  -2 129405. 4058.26   6
  -2  -4  -1 60310.2 3047.56   2
  -2  -4  -1 53390.2 2198.38   6
  -2  -4   0 2355.83 760.217   2
  -2  -4   1 5331.89 969.173   2
  -2  -4   2 25730.8 1724.64  10
  -2  -4   2 25652.0 2121.49   2
  -2  -4   3 53243.5 2938.57   1
  -2  -4   3 54061.2 3250.01   2
  -2  -4   3 53099.1 2428.72  10
  -2  -4   4 71806.8 3612.14   1
  -2  -4   4 72536.8 3932.31   2
  -2  -4   4 63061.9 2403.50   3
  -2  -4   4 69610.4 2624.53  10
  -2  -4   5 62701.7 3416.64   1
  -2  -4   5 61510.8 3714.40   2
  -2  -4   5 47621.7 1821.81   3
  -2  -4   5 48679.3 1865.82   3
  -2  -4   6 27270.2 2349.99   1
  -2  -4   6 23624.3 2277.90   2
  -2  -4   7 1468.21 698.597   1
  -2  -4   7-125.462 615.233   2
  -2  -4   8 573.108 744.485   1
  -2  -4   8-332.826 774.177   2
  -2  -4   9 16460.9 2242.55   2
  -2  -4   9 15063.8 2030.20   1
  -2  -4  10 14083.4 2188.19   2
  -2  -4  10 14521.1 2107.25   1
  -2  -4  11 11979.9 1843.29   1
  -2  -4  11 7542.03 1653.01   2
  -2  -4  12 5253.28 1543.85   2
  -2  -4  12 4377.34 1401.46   1
  -2  -4  13 3067.63 1368.45   1
  -2  -4  13-65.0207 685.882   2
  -2  -4  14 2632.25 1216.56   1
  -2  -4  14-484.248 1099.24   2
  -2  -4  15-694.607 763.313   2
  -2  -4  15 1283.78 1169.04   1
  -2  -4  16 4299.32 1511.30   1
  -2  -4  16 224.222 1066.49   2
  -2  -4  17 938.755 900.861   1
  -2  -4  17-1646.48 1452.91   2
  -2  -4  18 2480.46 1257.88   1
  -2  -4  18-952.789 805.494   2
  -2  -4  19 2472.07 1682.65   1
  -2  -4  19 72.6628 737.340   2
  -2  -4  20 768.394 1404.73   1
  -2  -4  20 22.2523 657.320   2
  -2  -4  21-105.946 950.145   2
  -2  -3 -23 999.474 940.879   4
  -2  -3 -22 286.716 706.487   4
  -2  -3 -21 28.8516 561.293   4
  -2  -3 -20 2239.22 1113.25   4
  -2  -3 -19 1628.48 1055.77   4
  -2  -3 -18 2523.74 1208.13   4
  -2  -3 -17 672.685 617.211   4
  -2  -3 -16 584.524 546.541   4
  -2  -3 -15 4165.65 1234.61   4
  -2  -3 -14 7026.97 1415.65   4
  -2  -3 -13 12011.3 1716.31   4
  -2  -3 -13 10618.3 1055.98   7
  -2  -3 -12 13324.4 1113.43   7
  -2  -3 -12 15006.6 1916.98   4
  -2  -3 -11 7212.68 746.812   7
  -2  -3 -11 7065.22 1363.32   4
  -2  -3 -10-23.6717 143.646   7
  -2  -3 -10 1028.08 737.628   4
  -2  -3  -9 8890.68 763.520   7
  -2  -3  -9 10296.9 1482.17   4
  -2  -3  -8 38890.5 2842.36   4
  -2  -3  -8 40673.9 1723.36   7
  -2  -3  -7 34729.0 2650.92   4
  -2  -3  -7 33452.4 1512.34   7
  -2  -3  -6 101739. 4640.20   4
  -2  -3  -6 90129.6 3054.32   7
  -2  -3  -5 48916.2 2066.86   7
  -2  -3  -5 52317.6 3128.85   4
  -2  -3  -4 18874.6 1141.46   2
  -2  -3  -4 18600.3 1823.13   4
  -2  -3  -3 638.226 192.076   2
  -2  -3  -3 1038.03 432.824   4
  -2  -3  -2 7601.88 847.189   2
  -2  -3  -1 46699.4 2322.50   2
  -2  -3   0 107037. 4042.74   2
  -2  -3   1 107807. 4199.32   2
  -2  -3   1 106143. 3735.16   1
  -2  -3   2 133874. 4580.96   1
  -2  -3   2 139506. 5171.55   2
  -2  -3   3 39586.8 2554.78   2
  -2  -3   3 42549.9 2287.43   1
  -2  -3   4 493.594 371.293   2
  -2  -3   4 304.465 148.946  10
  -2  -3   4 236.860 358.672   1
  -2  -3   5 12872.3 1670.85   2
  -2  -3   5 13525.3 1448.81   1
  -2  -3   5 10997.2 902.614   3
  -2  -3   6 37361.6 2761.34   2
  -2  -3   6 35537.6 2406.31   1
  -2  -3   6 31524.2 1598.44   3
  -2  -3   7 45990.6 2903.89   1
  -2  -3   7 38548.6 1792.60   3
  -2  -3   7 43768.4 3224.16   2
  -2  -3   8 47483.6 3463.03   2
  -2  -3   8 51431.4 3240.61   1
  -2  -3   9 19755.6 2324.63   2
  -2  -3   9 19269.2 2091.39   1
  -2  -3   9 15878.4 1136.37   3
  -2  -3  10 2964.58 514.631   3
  -2  -3  10 4097.68 1215.69   1
  -2  -3  10 3099.60 1146.49   2
  -2  -3  11 7.54169 540.776   1
  -2  -3  11-258.479 504.008   2
  -2  -3  11 543.692 275.808   3
  -2  -3  12 1529.09 1099.01   2
  -2  -3  12 1949.39 906.147   1
  -2  -3  13 2751.75 1138.23   2
  -2  -3  13 4888.48 1388.76   1
  -2  -3  14 3352.67 1320.38   1
  -2  -3  14 2815.64 1166.42   2
  -2  -3  15 5076.21 1679.11   1
  -2  -3  15 5865.17 1807.86   2
  -2  -3  16 2056.90 1250.75   2
  -2  -3  16 4246.32 1615.81   1
  -2  -3  17 632.905 752.432   2
  -2  -3  17 3671.66 1404.13   1
  -2  -3  18 2393.47 1347.84   1
  -2  -3  18 851.042 860.562   2
  -2  -3  19-900.580 1393.19   2
  -2  -3  19-1102.25 721.035   1
  -2  -3  20 1074.31 1433.39   1
  -2  -3  20-4168.32 1618.17   2
  -2  -3  21 1511.56 1392.66   1
  -2  -3  21 943.029 1255.01   2
  -2  -3  22-283.343 1107.90   2
  -2  -2 -23 354.986 701.854   4
  -2  -2 -22 154.104 601.191   4
  -2  -2 -21-121.774 569.641   4
  -2  -2 -20-637.312 661.522   4
  -2  -2 -19 1616.26 1046.33   4
  -2  -2 -18 2474.48 1116.26   4
  -2  -2 -17 3637.68 1313.86   4
  -2  -2 -16 1200.93 560.188   4
  -2  -2 -15 1292.06 683.732   4
  -2  -2 -14-559.317 587.674   4
  -2  -2 -13 697.819 734.392   4
  -2  -2 -12 12351.3 1799.74   4
  -2  -2 -11 28103.0 2599.29   4
  -2  -2 -10 40343.7 2975.37   4
  -2  -2  -9 34663.6 2661.57   4
  -2  -2  -9 27084.5 1234.11   7
  -2  -2  -8 24542.6 2228.69   4
  -2  -2  -8 20576.6 924.042   7
  -2  -2  -7 4093.31 316.029   7
  -2  -2  -7 5193.46 1050.09   4
  -2  -2  -6 755.239 509.958   4
  -2  -2  -5 67047.9 3519.78   4
  -2  -2  -4 109190. 4360.92   4
  -2  -2  -4 77961.8 2238.16   2
  -2  -2  -3 137500. 3846.25   7
  -2  -2  -3 140481. 3901.12   2
  -2  -2  -2 127663. 5001.21   4
  -2  -2  -2 128236. 3772.23   2
  -2  -2  -2 123308. 3736.49   7
  -2  -2  -1 57707.1 2345.68   2
  -2  -2   0 3017.20 344.038   1
  -2  -2   0 3911.65 608.451   2
  -2  -2   1 8896.84 955.634   2
  -2  -2   1 8661.14 663.590   1
  -2  -2   2 62813.9 2950.64   2
  -2  -2   2 60436.7 2359.20   1
  -2  -2   3 57263.9 2949.15   2
  -2  -2   3 52462.5 1838.35   9
  -2  -2   3 58579.8 2434.43   1
  -2  -2   4 72792.5 3047.11   1
  -2  -2   4 72607.4 3548.43   2
  -2  -2   4 70143.7 2444.90   9
  -2  -2   5 65733.1 3515.77   2
  -2  -2   5 70455.8 3172.45   1
  -2  -2   5 64739.4 2808.22   3
  -2  -2   6 39935.7 2462.37   1
  -2  -2   6 39116.3 2751.81   2
  -2  -2   6 37828.0 2027.06   3
  -2  -2   7 12676.0 1131.15   3
  -2  -2   7 14702.6 1541.00   1
  -2  -2   7 11783.5 1534.33   2
  -2  -2   8-33.6422 443.908   1
  -2  -2   8 1187.78 630.061   2
  -2  -2   8 855.992 403.920   3
  -2  -2   9 26929.0 2397.60   1
  -2  -2   9 28572.8 2643.33   2
  -2  -2   9 26609.3 1854.07   3
  -2  -2  10 9297.78 1567.15   1
  -2  -2  10 8830.81 1554.15   2
  -2  -2  10 10659.3 1189.17   3
  -2  -2  11 26350.5 2730.85   2
  -2  -2  11 24486.5 1951.31   3
  -2  -2  11 26264.9 2656.24   1
  -2  -2  12 12906.9 2050.91   2
  -2  -2  12 11884.2 1412.56   3
  -2  -2  12 11548.2 1808.37   1
  -2  -2  13 2709.10 757.640   3
  -2  -2  13 2050.43 963.604   1
  -2  -2  14 1097.02 1018.28   2
  -2  -2  14 660.769 810.507   1
  -2  -2  15 783.371 786.142   2
  -2  -2  15 696.722 856.733   1
  -2  -2  16 1287.09 1107.48   2
  -2  -2  16 2538.89 1202.21   1
  -2  -2  17 771.737 787.630   2
  -2  -2  17 2079.39 1098.55   1
  -2  -2  18 1927.33 1204.12   2
  -2  -2  18 2709.82 1360.12   1
  -2  -2  19-810.953 1042.36   2
  -2  -2  19-1065.52 781.693   1
  -2  -2  20-151.937 754.472   2
  -2  -2  20 291.644 838.986   1
  -2  -2  21-2889.92 1397.32   2
  -2  -2  21 184.226 840.344   1
  -2  -2  22-1552.33 1139.41   2
  -2  -1 -23-258.564 774.359   4
  -2  -1 -22 146.731 740.273   4
  -2  -1 -21 276.209 669.707   4
  -2  -1 -20 1196.95 851.051   4
  -2  -1 -19 749.088 724.299   4
  -2  -1 -18 1610.62 1122.83   4
  -2  -1 -17 1314.90 1030.99   4
  -2  -1 -16 2675.23 1191.62   4
  -2  -1 -15 530.372 705.326   4
  -2  -1 -14 4582.64 1267.85   4
  -2  -1 -13 16485.5 2151.03   4
  -2  -1 -12 18424.5 2231.69   4
  -2  -1 -11 15544.3 1971.87   4
  -2  -1 -10 1460.44 753.809   4
  -2  -1  -9 6946.51 1282.95   4
  -2  -1  -8 51442.0 3245.04   4
  -2  -1  -7 143691. 5751.96   4
  -2  -1  -6 208720. 7278.67   4
  -2  -1  -5 16889.6 1605.33   4
  -2  -1  -4 39161.8 1552.51   1
  -2  -1  -4 40416.6 2527.19   4
  -2  -1  -3 448.058 474.359   4
  -2  -1  -3 93.5330 112.172   1
  -2  -1  -2 26418.7 1899.69   4
  -2  -1  -2 25064.5 1063.93   7
  -2  -1  -1 92230.5 3888.08   4
  -2  -1  -1 98810.2 3048.10   7
  -2  -1   0 222499. 5352.50   1
  -2  -1   1 281051. 6967.36   1
  -2  -1   2 196749. 5394.58   1
  -2  -1   3 9270.81 852.732   1
  -2  -1   4 4859.74 762.407   3
  -2  -1   4 4821.48 729.305   1
  -2  -1   5 60935.8 2890.61   1
  -2  -1   5 60457.7 2896.83   3
  -2  -1   6 100172. 3892.25   3
  -2  -1   6 99803.4 4100.66   1
  -2  -1   7 68277.8 3293.10   3
  -2  -1   7 71148.9 3582.00   1
  -2  -1   8 27748.2 2025.54   3
  -2  -1   8 29644.1 2371.63   1
  -2  -1   9 7493.63 1458.25   2
  -2  -1   9 7683.45 1378.31   1
  -2  -1   9 7761.47 1076.08   3
  -2  -1  10 2782.69 791.911   2
  -2  -1  10 6229.62 1322.88   1
  -2  -1  10 4739.92 915.811   3
  -2  -1  11 431.799 527.281   2
  -2  -1  11 385.719 733.855   1
  -2  -1  11 852.020 453.181   3
  -2  -1  12 2216.27 983.819   2
  -2  -1  12 3947.82 1138.65   1
  -2  -1  12 2853.22 810.883   3
  -2  -1  13 8338.04 1653.90   1
  -2  -1  13 7744.77 1319.34   3
  -2  -1  13 5429.39 1376.02   2
  -2  -1  14 3453.39 1213.04   2
  -2  -1  14 5689.26 1471.92   1
  -2  -1  14 5456.54 1160.14   3
  -2  -1  15 3604.32 1284.73   1
  -2  -1  15 4454.58 1398.24   2
  -2  -1  15 4442.63 1122.70   3
  -2  -1  16 2192.77 1174.68   1
  -2  -1  16 365.403 659.310   2
  -2  -1  17 1174.91 1055.35   2
  -2  -1  17 1371.21 722.368   1
  -2  -1  18-1922.76 1073.86   2
  -2  -1  18 1109.00 1092.99   1
  -2  -1  19-54.6765 658.899   2
  -2  -1  19 343.807 884.939   1
  -2  -1  20 648.779 979.881   2
  -2  -1  20 334.014 875.318   1
  -2  -1  21 1043.22 794.614   2
  -2  -1  21 838.975 986.410   1
  -2  -1  22 1240.40 1124.50   1
  -2  -1  22 473.850 986.751   2
  -2  -1  23-361.001 853.369   2
  -2   0 -22 612.213 700.815   4
  -2   0 -21-1303.06 941.690   4
  -2   0 -20-1159.96 892.259   4
  -2   0 -19 161.187 643.898   4
  -2   0 -18 1311.91 841.641   4
  -2   0 -17 3603.97 1225.09   4
  -2   0 -16 5805.52 1487.96   4
  -2   0 -15 2884.12 1218.49   4
  -2   0 -14 555.671 854.587   4
  -2   0 -13 2720.32 928.275   4
  -2   0 -12 34182.1 3073.85   4
  -2   0 -11 7404.07 1322.05   4
  -2   0 -10 17576.5 2064.31   4
  -2   0  -9 8528.60 1441.18   4
  -2   0  -8 5451.10 1085.50   4
  -2   0  -7 1875.14 324.651   2
  -2   0  -7 2391.11 782.611   4
  -2   0  -6 790.982 225.715   2
  -2   0  -6 861.941 536.258   4
  -2   0  -5 10171.2 719.035   2
  -2   0  -5 13197.6 1424.69   4
  -2   0  -4 46553.2 1809.32   2
  -2   0  -4 57750.0 2877.36   4
  -2   0  -3 217296. 5878.08   2
  -2   0  -3 239510. 7163.97   4
  -2   0  -3 222481. 6061.75   1
  -2   0  -3 222516. 6469.06   9
  -2   0  -2 189550. 5970.95   4
  -2   0  -2 177523. 4954.47   1
  -2   0  -2 188058. 5290.11   9
  -2   0  -1 52580.9 2534.11   4
  -2   0  -1 51256.5 2070.88   7
  -2   0  -1 54734.0 2111.99   9
  -2   0   0 417.128 406.964   4
  -2   0   0 290.479 243.116   9
  -2   0   1 28720.8 1364.96   9
  -2   0   1 27403.4 1468.51   8
  -2   0   1 27522.6 1646.00   4
  -2   0   2 61817.2 2409.30   8
  -2   0   3 47864.4 2623.50   3
  -2   0   4 124341. 4792.96   3
  -2   0   5 75976.8 3578.94   3
  -2   0   6 44527.1 2611.51   1
  -2   0   6 45848.8 2705.02   3
  -2   0   7 4433.56 851.795   1
  -2   0   7 4892.76 941.811   3
  -2   0   8 5320.39 948.035   1
  -2   0   8 5065.91 929.771   3
  -2   0   9 16771.0 1857.22   3
  -2   0   9 17243.1 1820.36   1
  -2   0  10 23226.8 2159.92   3
  -2   0  10 20835.1 2144.78   1
  -2   0  11 42085.8 3092.68   3
  -2   0  11 38928.8 3164.70   1
  -2   0  12 3944.69 1141.61   3
  -2   0  12 6680.89 1396.70   1
  -2   0  13 6075.09 1512.20   1
  -2   0  13 6972.79 1407.39   3
  -2   0  14 1823.54 990.535   2
  -2   0  14 60.1152 763.807   1
  -2   0  14 838.301 720.031   3
  -2   0  15-747.910 787.870   2
  -2   0  15 285.283 686.956   3
  -2   0  16 603.633 732.138   2
  -2   0  16 765.057 622.635   3
  -2   0  17 351.245 626.737   2
  -2   0  17 2491.08 1070.15   1
  -2   0  17 1193.67 727.339   3
  -2   0  18 3641.92 1413.89   1
  -2   0  18 1632.95 1037.75   2
  -2   0  19 3609.88 1640.78   1
  -2   0  19 211.093 893.991   2
  -2   0  20 200.407 776.392   1
  -2   0  20 299.719 652.379   2
  -2   0  21 736.646 1078.98   2
  -2   0  21 289.066 893.691   1
  -2   0  22 1002.26 1164.45   1
  -2   0  22-902.165 867.241   2
  -2   0  23 531.774 956.827   2
  -2   1 -22-200.591 571.695   4
  -2   1 -22 941.539 1042.25   5
  -2   1 -21-23.1208 768.272   4
  -2   1 -20-441.416 716.536   4
  -2   1 -19 684.060 628.617   4
  -2   1 -18-341.918 708.135   4
  -2   1 -17 1353.29 1140.65   4
  -2   1 -16 1035.64 985.927   4
  -2   1 -15 2909.80 1081.53   4
  -2   1 -14 7822.13 1695.79   4
  -2   1 -13 9982.84 1878.06   4
  -2   1 -12 14319.1 2106.63   4
  -2   1 -11 14300.5 1975.77   4
  -2   1 -10 420.070 488.936   4
  -2   1  -9 12338.8 1745.15   4
  -2   1  -8 78069.6 4194.92   4
  -2   1  -7 139459. 5704.59   4
  -2   1  -6 99358.7 4394.41   4
  -2   1  -6 88680.9 4090.18   9
  -2   1  -5 41680.1 2576.30   4
  -2   1  -5 38035.8 2358.26   9
  -2   1  -4 29852.7 2022.02   9
  -2   1  -4 33382.7 2147.20   4
  -2   1  -3 44459.6 2403.67   9
  -2   1  -3 39700.5 2340.59   4
  -2   1  -2 39467.9 2141.28   9
  -2   1  -2 39429.7 2217.57   4
  -2   1  -1 115184. 4240.15   9
  -2   1  -1 119393. 4147.71   4
  -2   1   0 176309. 5495.22   4
  -2   1   0 188314. 5742.89   9
  -2   1   1 160480. 4946.93   4
  -2   1   1 168287. 5289.38   9
  -2   1   2 64480.0 2539.47   4
  -2   1   2 76014.3 3504.96   3
  -2   1   3 9121.27 1197.76   3
  -2   1   3 8429.48 566.083   8
  -2   1   4 75.9120 156.255   8
  -2   1   4 334.295 298.458   3
  -2   1   5 63977.1 2498.68   8
  -2   1   5 71856.9 3698.19   3
  -2   1   6 59756.6 3483.44   3
  -2   1   7 58659.4 3450.61   3
  -2   1   8 50833.7 3320.23   3
  -2   1   9 30179.2 2571.09   3
  -2   1  10 1498.89 761.927   1
  -2   1  10 1693.55 909.618   3
  -2   1  11 4417.53 1093.72   1
  -2   1  11 4557.78 1117.90   3
  -2   1  12 8060.35 1466.28   1
  -2   1  12 12534.9 1858.44   3
  -2   1  13 13229.2 2101.21   1
  -2   1  13 11582.3 1835.55   3
  -2   1  14 5927.02 1597.94   1
  -2   1  14 6694.67 1628.60   3
  -2   1  15 1452.42 932.153   1
  -2   1  15 1882.41 1052.75   3
  -2   1  16-133.595 618.354   3
  -2   1  16 288.375 544.193   1
  -2   1  17-230.879 618.231   2
  -2   1  17 1191.08 1005.75   1
  -2   1  17 1055.40 898.226   3
  -2   1  18-551.077 942.617   2
  -2   1  18 1372.79 1062.49   1
  -2   1  18 1715.93 1014.40   3
  -2   1  19 865.779 754.338   1
  -2   1  19 1261.66 834.048   2
  -2   1  19-36.4857 462.061   3
  -2   1  20 1103.68 1040.74   1
  -2   1  20 720.689 943.070   2
  -2   1  21 201.217 728.819   2
  -2   1  21-475.177 867.346   1
  -2   1  22 709.587 764.016   1
  -2   1  22 407.158 586.115   2
  -2   1  23 1945.98 1450.40   2
  -2   2 -21 1085.60 1303.21   5
  -2   2 -21-452.134 663.141   4
  -2   2 -20 1095.91 1203.49   5
  -2   2 -20-156.254 701.707   4
  -2   2 -19 28.7462 617.741   4
  -2   2 -18 559.302 738.070   4
  -2   2 -17 2078.84 1169.66   4
  -2   2 -16 3115.00 1293.38   4
  -2   2 -15 1144.54 668.789   4
  -2   2 -14 1432.74 1040.21   4
  -2   2 -13 2245.58 1177.90   4
  -2   2 -12 9235.29 1751.29   4
  -2   2 -11 9317.81 1705.12   4
  -2   2 -10 55116.0 3905.32   4
  -2   2  -9 10597.5 1737.49   4
  -2   2  -8 7609.60 1285.72   9
  -2   2  -8 9979.40 1572.19   4
  -2   2  -7 1342.38 691.314   9
  -2   2  -7 45.6801 486.908   4
  -2   2  -6 8071.15 1210.23   4
  -2   2  -6 8129.56 1174.50   9
  -2   2  -5 49338.6 2968.20   9
  -2   2  -5 46669.1 2838.54   4
  -2   2  -4 93431.3 4201.33   9
  -2   2  -4 91329.9 3983.60   4
  -2   2  -3 100618. 4437.48   9
  -2   2  -3 105194. 4102.39   4
  -2   2  -2 40018.0 2472.22   9
  -2   2  -2 35937.0 2057.45   4
  -2   2  -1 20518.5 1398.99   4
  -2   2  -1 22382.6 1786.66   9
  -2   2   0 1211.51 513.077   3
  -2   2   0 1446.19 345.770   4
  -2   2   0 1008.67 508.368   9
  -2   2   1 3636.86 776.364   9
  -2   2   1 4028.63 511.398   4
  -2   2   1 3732.06 790.078   3
  -2   2   2 31032.4 1419.64   4
  -2   2   2 33519.5 2431.08   3
  -2   2   3 89742.3 2814.46   4
  -2   2   3 103085. 4551.85   3
  -2   2   4 130691. 3756.27   4
  -2   2   4 150534. 5854.50   3
  -2   2   5 51897.1 3259.47   3
  -2   2   5 43392.3 1704.74   4
  -2   2   6 23377.7 1254.78   4
  -2   2   6 26277.0 2309.58   3
  -2   2   7 191.937 518.510   3
  -2   2   8 9871.97 1599.69   3
  -2   2   9 22814.6 2437.88   3
  -2   2  10 20385.3 2428.00   3
  -2   2  11 11632.2 1949.50   3
  -2   2  12 6009.89 1420.17   3
  -2   2  13 10979.6 1947.52   1
  -2   2  13 9738.58 1914.42   3
  -2   2  14 1233.95 736.130   1
  -2   2  14 322.830 739.873   3
  -2   2  15 1187.64 849.370   3
  -2   2  15 694.729 703.135   1
  -2   2  16 2538.37 1130.85   1
  -2   2  16 3947.62 1408.38   3
  -2   2  17 4079.52 1495.61   1
  -2   2  17 5005.18 1639.63   3
  -2   2  18 1762.24 1091.15   3
  -2   2  18 2631.15 1289.19   1
  -2   2  19-341.427 782.401   2
  -2   2  19 83.5187 719.539   3
  -2   2  19 497.191 874.904   1
  -2   2  20-746.597 984.670   2
  -2   2  20-91.0954 793.975   3
  -2   2  20 467.967 1202.83   1
  -2   2  21-1684.29 926.104   2
  -2   2  21 482.061 911.531   1
  -2   2  22 1.29756 1103.04   1
  -2   2  22-663.163 1118.56   2
  -2   3 -20 426.844 655.803   5
  -2   3 -20-730.607 892.927   4
  -2   3 -19 392.351 924.302   5
  -2   3 -19 1263.66 714.871   4
  -2   3 -18-189.839 722.306   4
  -2   3 -18 4060.11 1647.77   5
  -2   3 -17 283.522 575.143   4
  -2   3 -16 2543.70 1381.70   4
  -2   3 -15 2677.53 1259.04   4
  -2   3 -14 4959.08 1499.09   4
  -2   3 -13 5447.04 1451.03   4
  -2   3 -12 4671.00 1374.27   4
  -2   3 -11 3070.57 1109.64   4
  -2   3 -10 1988.54 749.944   9
  -2   3 -10 4163.21 1246.80   4
  -2   3  -9 9634.91 1625.23   9
  -2   3  -9 10737.1 1734.34   4
  -2   3  -8 19002.0 2129.56   4
  -2   3  -8 19582.9 2094.81   9
  -2   3  -7 37695.8 2903.28   4
  -2   3  -7 37250.9 2909.59   9
  -2   3  -6 51546.1 3279.86   4
  -2   3  -6 52819.7 3477.58   9
  -2   3  -5 39726.8 2723.28   4
  -2   3  -5 39079.5 2888.15   9
  -2   3  -4 9604.10 1412.85   9
  -2   3  -4 8453.72 1236.27   4
  -2   3  -3 4053.66 968.680   9
  -2   3  -3 4788.81 861.718   4
  -2   3  -2 25882.0 2343.21   9
  -2   3  -2 28772.2 2191.55   3
  -2   3  -2 27407.8 1864.46   4
  -2   3  -1 150594. 5997.29   9
  -2   3  -1 141243. 4851.21   4
  -2   3  -1 155316. 5842.57   3
  -2   3   0 182354. 6716.18   9
  -2   3   0 163993. 5180.54   4
  -2   3   0 186928. 6618.16   3
  -2   3   1 107205. 3519.72   4
  -2   3   1 121759. 5169.50   3
  -2   3   1 120289. 5118.33   9
  -2   3   2 24835.1 1145.05   4
  -2   3   2 27073.4 2277.88   3
  -2   3   2 24353.2 1321.17   5
  -2   3   3 242.449 619.261   3
  -2   3   3 255.780 175.830   5
  -2   3   4 21934.3 1204.11   5
  -2   3   4 27714.6 2377.21   3
  -2   3   5 43036.3 3051.66   3
  -2   3   5 36440.7 1675.47   5
  -2   3   6 18097.0 2106.88   3
  -2   3   7 34191.2 1150.58   4
  -2   3   7 26245.7 1354.89   8
  -2   3   8 30695.5 2872.81   3
  -2   3   8 20126.7 1069.22   4
  -2   3   9 14936.5 2230.75   3
  -2   3  10 2187.42 1041.68   3
  -2   3  11 3068.66 1247.92   3
  -2   3  12 7080.76 1793.30   3
  -2   3  13 9993.78 1969.78   3
  -2   3  14 6670.12 1844.79   3
  -2   3  15-960.739 777.884   1
  -2   3  15 1410.33 1048.63   3
  -2   3  16 2833.88 1208.23   1
  -2   3  16 2053.04 1120.24   3
  -2   3  17 2195.87 1139.04   3
  -2   3  17 1094.59 874.243   1
  -2   3  18 1037.98 883.793   1
  -2   3  18 102.858 797.258   3
  -2   3  19-492.917 766.828   1
  -2   3  19-10.7314 514.147   3
  -2   3  20 81.2358 503.381   3
  -2   3  20 2840.27 1334.70   1
  -2   3  21-1252.58 950.419   2
  -2   3  21 356.503 663.743   3
  -2   3  22 1617.57 1190.48   1
  -2   3  22-198.837 717.201   2
  -2   4 -20 1552.86 1267.07   5
  -2   4 -19 2319.59 1476.44   5
  -2   4 -18 1787.76 1138.63   5
  -2   4 -17 843.787 957.230   4
  -2   4 -17 4241.84 1675.67   5
  -2   4 -16 2106.62 1455.70   5
  -2   4 -16 15.1689 613.410   4
  -2   4 -15 287.361 508.712   4
  -2   4 -14-407.412 717.669   4
  -2   4 -13 736.389 613.516   4
  -2   4 -12 4370.69 1196.73   4
  -2   4 -11 15033.9 2133.38   9
  -2   4 -11 18189.8 2418.22   4
  -2   4 -10 18065.9 2309.52   4
  -2   4 -10 16730.0 2225.78   9
  -2   4  -9 2869.21 1039.56   9
  -2   4  -9 3034.65 848.283   4
  -2   4  -8 10137.7 1703.21   9
  -2   4  -8 8872.79 1538.61   4
  -2   4  -7 895.562 680.670   9
  -2   4  -7 903.937 552.524   4
  -2   4  -6 11640.7 1789.32   9
  -2   4  -6 11608.9 1603.40   4
  -2   4  -5 31614.7 2468.58   4
  -2   4  -5 31713.6 2751.49   9
  -2   4  -5 28468.4 2258.26   3
  -2   4  -4 51135.0 3506.87   9
  -2   4  -4 50420.0 3062.76   4
  -2   4  -4 48296.1 2955.59   3
  -2   4  -3 48202.7 3339.14   9
  -2   4  -3 48111.3 2823.66   4
  -2   4  -3 50485.7 3047.29   3
  -2   4  -2 28253.3 2648.19   9
  -2   4  -2 30289.4 2042.66   4
  -2   4  -2 29816.9 2303.91   3
  -2   4  -1 11135.4 1102.40   4
  -2   4  -1 9751.77 1463.30   9
  -2   4  -1 12734.6 1554.28   3
  -2   4   0 857.004 688.887   9
  -2   4   0 301.535 584.862   3
  -2   4   0-256.404 257.029   4
  -2   4   1 9602.49 1434.60   3
  -2   4   1 8242.91 1488.45   9
  -2   4   2 25637.6 1274.77   5
  -2   4   2 36802.0 2768.82   3
  -2   4   3 65784.9 3825.47   3
  -2   4   3 41906.6 1516.41   5
  -2   4   4 65561.1 4179.17   3
  -2   4   5 40792.4 3240.29   3
  -2   4   6 18267.6 2300.40   3
  -2   4   7 1047.29 231.628   8
  -2   4   7 2172.93 1130.88   3
  -2   4   8 8882.01 773.397   8
  -2   4   8 13703.7 2043.39   3
  -2   4   9 25077.2 2826.24   3
  -2   4   9 18247.2 1304.91   8
  -2   4  10 15697.0 1356.46   8
  -2   4  10 14137.9 2224.14   3
  -2   4  11 11394.1 2020.74   3
  -2   4  12 6899.01 1706.83   3
  -2   4  13 4087.72 1552.35   3
  -2   4  14-104.250 809.792   3
  -2   4  15 637.718 805.849   3
  -2   4  16 2959.65 1203.02   1
  -2   4  16-70.9331 764.501   3
  -2   4  17 185.632 598.211   1
  -2   4  17 4708.49 1753.53   3
  -2   4  18 1286.27 988.317   1
  -2   4  18 810.835 1274.55   3
  -2   4  19 2330.13 1389.62   1
  -2   4  19 2309.06 1370.40   3
  -2   4  20 418.668 747.805   3
  -2   4  20 2421.19 1258.32   1
  -2   4  21-853.919 892.786   1
  -2   4  21 91.9803 790.209   3
  -2   4  22-885.039 958.278   3
  -2   5 -19 1239.55 1020.79   5
  -2   5 -18-1988.33 1145.59   5
  -2   5 -17 1478.81 1237.74   5
  -2   5 -16 2015.82 1423.58   5
  -2   5 -15 3006.28 1554.38   5
  -2   5 -14 4622.65 1580.58   5
  -2   5 -13 4015.20 1419.68   5
  -2   5 -13 1690.52 971.575   4
  -2   5 -12-19.4633 467.581   4
  -2   5 -12 1085.58 900.427   9
  -2   5 -11 182.883 514.151   4
  -2   5 -11 1053.43 938.202   9
  -2   5 -10-456.774 653.248   4
  -2   5 -10 253.096 514.613   9
  -2   5  -9 1921.93 650.342   4
  -2   5  -9 2666.79 723.713   3
  -2   5  -9 1890.89 824.064   9
  -2   5  -8 15514.0 2178.53   9
  -2   5  -8 14416.7 1979.59   4
  -2   5  -8 15206.8 1626.15   3
  -2   5  -7 21768.9 2517.47   9
  -2   5  -7 23585.2 2041.65   3
  -2   5  -7 24240.7 2440.63   4
  -2   5  -6 19847.8 1910.01   3
  -2   5  -6 17604.5 1989.82   4
  -2   5  -6 20331.5 2436.92   9
  -2   5  -5 9026.12 1340.88   4
  -2   5  -5 8088.68 1596.60   9
  -2   5  -5 7603.44 1197.63   3
  -2   5  -4 901.663 671.815   9
  -2   5  -4-92.3441 426.735   4
  -2   5  -4 547.315 357.545   3
  -2   5  -3 4373.23 986.490   3
  -2   5  -3 3639.60 1280.33   9
  -2   5  -2 23984.9 2216.67   3
  -2   5  -2 25053.8 2580.32   9
  -2   5  -1 49726.5 3711.34   9
  -2   5  -1 55079.2 3492.39   3
  -2   5   0 53192.4 3772.50   9
  -2   5   0 53146.9 3491.95   3
  -2   5   1 37365.2 2985.80   3
  -2   5   1 35385.6 3106.84   9
  -2   5   2 10084.0 1568.24   3
  -2   5   2 10253.2 1731.52   9
  -2   5   2 6881.48 534.901   5
  -2   5   2 7356.08 571.791   5
  -2   5   3-406.694 557.935   3
  -2   5   4 6567.97 1344.70   3
  -2   5   5 17188.9 2262.61   3
  -2   5   6 30942.9 3081.61   3
  -2   5   7 20262.3 1140.39   8
  -2   5   7 29827.2 3119.71   3
  -2   5   8 7044.45 692.794   8
  -2   5   8 12778.8 2131.40   3
  -2   5   9 4956.44 1405.83   3
  -2   5  10 890.492 1010.71   3
  -2   5  11 3246.48 1510.74   3
  -2   5  12 5465.19 1661.74   3
  -2   5  13 7631.44 2050.80   3
  -2   5  14 6732.35 1976.94   3
  -2   5  15 4417.67 1820.20   3
  -2   5  16 1431.64 1267.69   3
  -2   5  17 2381.84 1502.53   3
  -2   5  18-1089.25 1188.93   3
  -2   5  18-1246.99 1012.44   1
  -2   5  19-567.206 851.284   1
  -2   5  19 1106.48 1195.58   3
  -2   5  20 1990.86 1337.56   1
  -2   5  20-321.208 977.114   3
  -2   5  21-492.879 831.164   1
  -2   5  21 513.918 1152.87   3
  -2   5  22 2093.07 1442.81   3
  -2   6 -18 312.208 694.516   5
  -2   6 -17 385.427 877.478   5
  -2   6 -16 974.294 922.099   5
  -2   6 -15 946.763 965.721   5
  -2   6 -14 1320.92 1102.46   5
  -2   6 -13 2992.58 1394.32   5
  -2   6 -13 838.776 951.109   9
  -2   6 -12 2330.24 1083.17   5
  -2   6 -12 1696.40 866.008   9
  -2   6 -11 4912.12 1440.51   5
  -2   6 -11 4049.70 1481.36   9
  -2   6 -10 5511.15 1614.66   5
  -2   6 -10 6462.87 1561.88   9
  -2   6  -9 5945.61 1421.43   5
  -2   6  -9 5711.44 1494.10   9
  -2   6  -8 3031.66 1086.18   5
  -2   6  -8 1557.69 597.874   3
  -2   6  -8 3164.53 1171.80   9
  -2   6  -7 2340.38 880.884   5
  -2   6  -7 1119.43 509.524   3
  -2   6  -7 1044.20 764.160   9
  -2   6  -6 4310.64 1064.28   5
  -2   6  -6 3062.88 814.686   3
  -2   6  -6 2760.33 1261.73   9
  -2   6  -5 18582.7 2553.17   9
  -2   6  -5 18353.5 1882.76   3
  -2   6  -5 20269.2 2153.60   5
  -2   6  -4 27237.7 3101.54   9
  -2   6  -4 32383.6 2609.61   3
  -2   6  -4 32115.0 2561.22   5
  -2   6  -3 30536.3 3062.82   9
  -2   6  -3 29364.7 2537.16   3
  -2   6  -3 30220.2 2300.18   5
  -2   6  -2 12173.5 1381.36   5
  -2   6  -2 11129.7 1527.81   3
  -2   6  -2 12794.8 2009.45   9
  -2   6  -1 615.318 424.301   5
  -2   6  -1 394.650 473.725   3
  -2   6  -1 1576.44 850.322   9
  -2   6   0 2865.99 522.296   5
  -2   6   0 2683.67 763.623   3
  -2   6   0 2930.79 1039.33   9
  -2   6   1 10632.0 1867.23   9
  -2   6   1 11017.7 1670.25   3
  -2   6   1 9667.74 828.312   5
  -2   6   2 22646.0 2427.37   3
  -2   6   2 20932.7 2710.79   9
  -2   6   3 26183.6 2815.08   3
  -2   6   4 26513.9 2831.23   3
  -2   6   5 12900.6 2099.33   3
  -2   6   6 687.280 880.101   3
  -2   6   7 2904.71 1263.92   3
  -2   6   8 6868.10 1815.19   3
  -2   6   9 12723.2 2336.04   3
  -2   6  10 9321.93 2272.17   3
  -2   6  11 5311.86 1777.79   3
  -2   6  12 859.418 898.296   3
  -2   6  13-589.215 748.608   3
  -2   6  14 3335.51 1468.96   3
  -2   6  15 300.408 1042.69   3
  -2   6  16-383.504 885.079   3
  -2   6  17 2001.85 1392.00   3
  -2   6  18 1421.63 1117.65   3
  -2   6  19-117.659 719.363   1
  -2   6  19 4060.94 1973.19   3
  -2   6  20 1960.80 1084.33   3
  -2   6  20-495.534 759.307   1
  -2   6  21-194.954 788.642   3
  -2   7 -17 1289.55 1279.89   5
  -2   7 -16-607.996 628.207   5
  -2   7 -15-402.830 906.714   5
  -2   7 -14-886.121 598.506   5
  -2   7 -13 1418.18 1067.98   9
  -2   7 -13 166.900 600.918   5
  -2   7 -12-238.378 821.492   9
  -2   7 -12 1275.54 859.596   5
  -2   7 -11 259.534 472.011   5
  -2   7 -11-94.3766 489.961   9
  -2   7 -10 2062.93 1018.32   9
  -2   7 -10 1994.97 984.610   5
  -2   7  -9 4204.24 1312.50   5
  -2   7  -9 5193.57 1535.62   9
  -2   7  -8 6972.38 1540.77   5
  -2   7  -8 6709.02 1640.39   9
  -2   7  -7 3819.23 1091.81   5
  -2   7  -7 3401.88 1146.24   9
  -2   7  -6 3801.71 1253.39   9
  -2   7  -6 1915.25 676.117   3
  -2   7  -6 2907.91 934.460   5
  -2   7  -5 849.901 546.665   5
  -2   7  -5 1291.11 908.411   9
  -2   7  -5 1513.31 663.537   3
  -2   7  -4 455.218 530.631   5
  -2   7  -4-237.646 568.153   9
  -2   7  -4 558.037 513.401   3
  -2   7  -3 815.146 541.274   5
  -2   7  -3 1768.21 1177.89   9
  -2   7  -3-461.297 537.739   3
  -2   7  -2 3735.30 776.457   5
  -2   7  -2 1552.54 883.643   9
  -2   7  -2 3252.08 956.930   3
  -2   7  -1 11774.9 1723.36   3
  -2   7  -1 12800.6 1312.36   5
  -2   7  -1 14640.0 2233.22   9
  -2   7   0 24994.4 2957.53   9
  -2   7   0 23835.5 2524.23   3
  -2   7   1 21804.1 2456.07   3
  -2   7   1 20116.5 2656.15   9
  -2   7   2 6775.22 1789.97   9
  -2   7   2 6577.58 1547.02   3
  -2   7   3-146.128 756.297   3
  -2   7   3 1382.22 997.974   9
  -2   7   4 6941.22 1625.99   3
  -2   7   5 16097.5 2477.57   3
  -2   7   6 12390.6 2297.39   3
  -2   7   7 9479.18 2091.63   3
  -2   7   8 4600.57 1600.61   3
  -2   7   9 2547.00 1049.12   3
  -2   7  10-229.740 627.196   3
  -2   7  11 3664.13 1613.54   3
  -2   7  12 5710.02 1871.99   3
  -2   7  13 4506.78 1644.27   3
  -2   7  14 5787.01 2072.80   3
  -2   7  15 1324.82 1442.85   3
  -2   7  16 539.095 1290.96   3
  -2   7  17 730.433 1091.12   3
  -2   7  18 915.063 1038.52   3
  -2   7  19 2693.02 1767.14   3
  -2   8 -15 416.712 571.046   5
  -2   8 -14 383.272 775.099   5
  -2   8 -13-571.807 792.985   5
  -2   8 -13 1162.56 853.318   9
  -2   8 -12 642.232 864.049   9
  -2   8 -12 695.535 591.828   5
  -2   8 -11 1838.25 867.430   5
  -2   8 -11 1297.50 892.872   9
  -2   8 -10 1961.25 1259.48   9
  -2   8 -10 1361.98 988.742   5
  -2   8  -9 1604.91 846.315   5
  -2   8  -9 1779.09 1068.06   9
  -2   8  -8 287.413 459.399   5
  -2   8  -8 465.175 861.596   9
  -2   8  -7 253.266 503.912   5
  -2   8  -7 1066.45 712.323   9
  -2   8  -6 1599.48 645.353   5
  -2   8  -6 3480.37 1268.94   9
  -2   8  -5 12972.7 2410.36   9
  -2   8  -4 14275.5 2451.64   9
  -2   8  -4 11514.5 1717.29   3
  -2   8  -3 7457.44 1761.41   9
  -2   8  -3 7400.10 1393.64   3
  -2   8  -2 1284.26 765.333   3
  -2   8  -2 2994.02 1138.02   9
  -2   8  -1 1259.83 1098.82   9
  -2   8  -1 751.077 633.465   3
  -2   8   0 3931.39 1432.86   9
  -2   8   0 3129.22 1077.01   3
  -2   8   1 7083.63 1815.59   9
  -2   8   1 6561.75 1497.70   3
  -2   8   2 8241.86 1995.55   9
  -2   8   2 7486.07 1595.56   3
  -2   8   3 6393.17 1713.45   9
  -2   8   3 8391.64 1775.14   3
  -2   8   4 6752.60 1797.12   9
  -2   8   4 6213.04 1541.35   3
  -2   8   5 2102.73 1010.57   3
  -2   8   6-878.033 585.979   3
  -2   8   7 2356.25 996.903   3
  -2   8   8 3462.70 1567.82   3
  -2   8   9 3512.77 1363.67   3
  -2   8  10 2996.93 1310.85   3
  -2   8  11 2262.09 1413.17   3
  -2   8  12 2149.00 1133.00   3
  -2   8  13-669.331 1015.36   3
  -2   8  14-101.760 754.305   3
  -2   8  15 2212.31 1475.89   3
  -2   8  16 472.799 1411.32   3
  -2   8  17 1052.95 1285.26   3
  -2   8  18 1872.06 1478.27   3
  -2   9 -12 394.071 627.874   9
  -2   9 -11-443.439 784.273   9
  -2   9 -10-347.157 614.289   9
  -2   9  -9 185.943 805.078   9
  -2   9  -8 2118.33 1092.29   9
  -2   9  -7 469.658 963.323   9
  -2   9  -6 2490.88 1267.61   9
  -2   9  -5 1159.35 1011.89   9
  -2   9  -4-29.5189 864.371   9
  -2   9  -3 1888.93 1304.99   9
  -2   9  -2 5014.40 1542.72   9
  -2   9  -2 3316.69 1107.60   3
  -2   9  -1 5529.39 1743.00   9
  -2   9  -1 4879.54 1252.86   3
  -2   9   0 5556.87 1717.76   9
  -2   9   0 4969.97 1375.85   3
  -2   9   1 2215.07 1066.00   9
  -2   9   1 2712.83 1070.51   3
  -2   9   2 604.093 970.742   9
  -2   9   2 942.227 877.378   3
  -2   9   3 1391.03 1184.41   9
  -2   9   3-783.667 664.655   3
  -2   9   4 2569.69 1512.47   9
  -2   9   4 3015.87 1224.42   3
  -2   9   5 3455.18 1570.13   9
  -2   9   5 3299.05 1276.96   3
  -2   9   6 3195.17 1395.52   9
  -2   9   6 1550.41 1142.47   3
  -2   9   7 3455.21 1417.20   3
  -2   9   8 1947.28 1168.03   3
  -2   9   9 56.4808 732.897   3
  -2   9  10 1463.98 1305.86   3
  -2   9  11 350.154 946.206   3
  -2   9  12 1947.33 1317.78   3
  -2   9  13 1918.80 1165.47   3
  -2   9  14 2817.74 1664.06   3
  -2   9  15 90.2768 955.943   3
  -2   9  16 586.645 906.754   3
  -2  10 -10-629.601 582.473   9
  -2  10  -9 1435.54 1164.25   9
  -2  10  -8-141.351 623.329   9
  -2  10  -7 632.711 825.153   9
  -2  10  -6 2386.30 1288.24   9
  -2  10  -5 3174.36 1425.60   9
  -2  10  -4 1768.50 1208.41   9
  -2  10  -3 2169.26 1087.29   9
  -2  10  -2 992.162 1016.32   9
  -2  10  -1-500.869 794.412   9
  -2  10   0 1406.20 1286.20   9
  -2  10   1 1568.15 1109.23   9
  -2  10   1 889.034 765.636   3
  -2  10   2 5631.48 1885.34   9
  -2  10   2 1103.22 930.149   3
  -2  10   3 3367.17 1563.25   9
  -2  10   3 2654.05 1145.42   3
  -2  10   4 1447.44 972.640   9
  -2  10   4 2661.21 1286.40   3
  -2  10   5 692.995 859.223   9
  -2  10   5 2390.86 1367.93   3
  -2  10   6 1197.66 899.570   9
  -2  10   6 346.645 746.129   3
  -2  10   7 2369.98 1434.41   9
  -2  10   7-1811.74 888.155   3
  -2  10   8 2735.74 1322.25   3
  -2  10   9 215.768 741.713   3
  -2  10  10-361.624 712.637   3
  -2  10  11 887.035 1128.16   3
  -2  10  12-1145.20 1041.91   3
  -2  10  13 2319.34 1558.94   3
  -2  10  14 2346.37 1359.07   3
  -2  11  -6 363.986 778.876   9
  -2  11  -5-592.841 985.948   9
  -2  11  -4 1075.72 1232.14   9
  -2  11  -3 1774.36 1195.82   9
  -2  11  -2 813.254 1058.62   9
  -2  11  -1 1812.82 1289.26   9
  -2  11   0 1139.42 1209.84   9
  -2  11   1 1161.74 1044.81   9
  -2  11   2 1031.94 963.759   9
  -2  11   3 1457.03 1033.97   9
  -2  11   3 408.771 678.468   3
  -2  11   4 2780.63 1406.20   9
  -2  11   4 1079.34 834.971   3
  -2  11   5 2207.13 1608.93   9
  -2  11   5 1234.70 1071.48   3
  -2  11   6 2565.77 1406.23   9
  -2  11   6 3253.12 1327.15   3
  -2  11   7 1367.30 1109.77   9
  -2  11   7 761.172 1022.54   3
  -2  11   8 346.431 925.727   9
  -2  11   8-466.046 713.479   3
  -2  11   9 538.844 991.730   9
  -2  11   9 1024.61 955.775   3
  -2  11  10-468.797 1008.79   3
  -2  11  11-672.329 942.113   3
  -2  12   6 840.529 1098.76   3
  -2  12   7-298.533 777.261   3
  -2  12   8 1481.43 1220.73   3
  -1 -13  -7 22.3771 920.890   7
  -1 -13  -6 892.806 1016.61   7
  -1 -13  -5 1638.69 1208.36   7
  -1 -13  -4 669.600 1146.46   7
  -1 -13  -3 2799.50 1635.24   7
  -1 -12 -12 313.824 735.812   7
  -1 -12 -11 714.442 751.130   7
  -1 -12 -10 1401.30 1032.36   7
  -1 -12  -9 437.750 767.485   7
  -1 -12  -8-787.684 1146.42   7
  -1 -12  -7 2660.44 1134.01   7
  -1 -12  -6 1732.48 1179.46   7
  -1 -12  -5 1932.19 1270.28   7
  -1 -12  -4-338.368 782.331   7
  -1 -12  -3 434.818 1218.14   7
  -1 -12  -2 1253.03 1185.58   7
  -1 -12  -1 5536.26 2108.95   7
  -1 -12   0-861.798 1300.47   2
  -1 -12   0 4281.09 1810.87   7
  -1 -12   1 794.136 928.716   2
  -1 -12   2 274.444 1139.29   2
  -1 -12   3 70.4251 703.426   2
  -1 -12   4 1758.93 1581.19   2
  -1 -12   5 2221.97 1540.41   2
  -1 -11 -13 238.163 453.165   7
  -1 -11 -12 2158.33 1230.33   7
  -1 -11 -11 1312.26 850.401   7
  -1 -11 -10 585.892 628.508   7
  -1 -11  -9 466.585 720.648   7
  -1 -11  -8-169.781 816.842   7
  -1 -11  -7 1287.37 1110.39   7
  -1 -11  -6 3016.19 1370.99   7
  -1 -11  -5 1805.72 1207.33   7
  -1 -11  -4 4428.98 1553.56   7
  -1 -11  -3 2534.26 1496.85   7
  -1 -11  -2 2919.61 1554.95   7
  -1 -11  -1-389.784 1112.64   2
  -1 -11   0 1747.62 797.571   2
  -1 -11   1-167.153 1092.53   2
  -1 -11   2 3597.27 1814.67   2
  -1 -11   3 6376.99 2203.78   2
  -1 -11   4 1027.01 1048.87   2
  -1 -11   5 993.171 1472.61   2
  -1 -11   6 751.928 1284.70   2
  -1 -11   7 1683.06 1140.41   2
  -1 -11   8 782.693 1334.44   2
  -1 -11   9 2140.99 1772.54   2
  -1 -10 -16 292.457 823.030  10
  -1 -10 -15 1829.77 1202.08  10
  -1 -10 -14 623.439 751.392  10
  -1 -10 -14 1332.38 875.659   7
  -1 -10 -13 1377.75 1284.50  10
  -1 -10 -13-380.746 590.184   7
  -1 -10 -12 924.265 693.353   7
  -1 -10 -12 1295.66 938.710  10
  -1 -10 -11 1031.71 993.796   7
  -1 -10 -10 768.286 579.687   7
  -1 -10  -9 1041.51 735.123   7
  -1 -10  -8 4430.72 1440.47   7
  -1 -10  -7 5139.91 1380.80   7
  -1 -10  -6 4773.92 1597.76   7
  -1 -10  -5 4649.78 1617.96   7
  -1 -10  -4 902.452 959.422   7
  -1 -10  -3 3761.59 1659.07   7
  -1 -10  -2 5603.47 1521.15   2
  -1 -10  -1 6461.22 1853.07   2
  -1 -10   0 6526.58 1620.37   2
  -1 -10   1 5295.64 1725.99   2
  -1 -10   2 1337.49 963.357   2
  -1 -10   3 139.200 982.925   2
  -1 -10   4 616.604 1064.58   2
  -1 -10   5 2367.16 1139.91   2
  -1 -10   6 1153.18 1136.83   2
  -1 -10   7 4422.33 1605.88   2
  -1 -10   8 3223.93 1731.96   2
  -1 -10   9 522.125 1235.41   2
  -1 -10  10 3114.16 1972.67   2
  -1 -10  11 2338.53 1598.66   2
  -1 -10  12 3270.88 1836.06   2
  -1  -9 -18 2206.40 1427.30  10
  -1  -9 -17-79.2110 900.665  10
  -1  -9 -16-253.895 651.118  10
  -1  -9 -15 941.838 1337.45  10
  -1  -9 -14 282.788 595.918   7
  -1  -9 -14 2377.58 1428.66  10
  -1  -9 -13 1499.78 1251.97  10
  -1  -9 -13 1437.76 792.298   7
  -1  -9 -12 3692.78 1510.37  10
  -1  -9 -12 3096.27 1120.20   7
  -1  -9 -11 5423.02 1415.95   7
  -1  -9 -11 4323.98 1600.93  10
  -1  -9 -10 6452.84 1907.26  10
  -1  -9 -10 4403.28 1285.42   7
  -1  -9  -9 2428.61 1261.77  10
  -1  -9  -9 2973.01 1175.95   7
  -1  -9  -8 326.990 589.772  10
  -1  -9  -8 761.978 819.791   7
  -1  -9  -7 236.442 600.904  10
  -1  -9  -7 1691.68 991.445   7
  -1  -9  -6 4077.78 1423.66   7
  -1  -9  -6 3345.03 935.997   4
  -1  -9  -5 10647.5 2033.65   7
  -1  -9  -5 9667.80 1511.92   4
  -1  -9  -4 16025.4 2491.33   7
  -1  -9  -3 11515.0 1892.04   2
  -1  -9  -3 14514.5 2381.88   7
  -1  -9  -2 6613.35 1545.43   2
  -1  -9  -1 1045.78 705.189   2
  -1  -9   0 2261.86 1268.63   2
  -1  -9   1 7283.40 1712.19   2
  -1  -9   2 14708.5 2441.69   2
  -1  -9   3 7334.62 1891.85   2
  -1  -9   4 5970.18 1719.99   2
  -1  -9   5 4316.38 1663.79   2
  -1  -9   6 662.432 1063.64   2
  -1  -9   7 680.944 859.907   2
  -1  -9   8 5304.92 1954.67   2
  -1  -9   9 2468.83 1647.34   2
  -1  -9  10 3230.39 1360.25   2
  -1  -9  11 3658.48 1937.87   2
  -1  -9  12 2552.11 1432.44   2
  -1  -9  13 2147.34 1645.59   2
  -1  -9  14 2236.79 1617.65   2
  -1  -8 -20 1781.19 1311.24  10
  -1  -8 -19 256.243 1008.40  10
  -1  -8 -18 167.274 713.870  10
  -1  -8 -17 1877.12 1163.81  10
  -1  -8 -16 1064.77 1047.43  10
  -1  -8 -15 2862.32 980.078   7
  -1  -8 -15 3774.28 1624.94  10
  -1  -8 -14 1626.72 730.265   7
  -1  -8 -14 2307.34 1081.58  10
  -1  -8 -13 1510.07 758.909   7
  -1  -8 -13 2701.86 1068.91  10
  -1  -8 -12-6.68731 408.317   7
  -1  -8 -12 764.350 675.947  10
  -1  -8 -11-347.224 446.046   7
  -1  -8 -11 1178.46 1160.15  10
  -1  -8 -10 1164.72 784.742   7
  -1  -8 -10 446.041 708.010  10
  -1  -8  -9 2698.42 945.796   7
  -1  -8  -9 2954.97 782.680   4
  -1  -8  -8 10207.2 1527.21   4
  -1  -8  -8 10453.1 1842.41   7
  -1  -8  -8 13805.0 2318.69  10
  -1  -8  -7 22608.7 2938.24  10
  -1  -8  -7 18981.5 2420.41   7
  -1  -8  -7 16409.9 1907.62   4
  -1  -8  -6 14782.1 1749.35   4
  -1  -8  -6 15255.8 2356.97  10
  -1  -8  -6 17060.9 2330.46   7
  -1  -8  -5 4274.00 1416.43   7
  -1  -8  -5 4214.89 937.293   4
  -1  -8  -5 5727.45 1627.03  10
  -1  -8  -4 1763.81 1038.33   7
  -1  -8  -4 1220.11 590.732   2
  -1  -8  -3 6789.25 1445.29   2
  -1  -8  -2 15903.3 2282.81   2
  -1  -8  -1 22868.2 2665.68   2
  -1  -8   0 20842.3 2602.47   2
  -1  -8   1 17903.6 2506.68   2
  -1  -8   2 2377.79 1232.44   2
  -1  -8   3 459.519 925.516   2
  -1  -8   4 4022.52 1223.92   2
  -1  -8   5 13695.3 2433.35   2
  -1  -8   6 12502.6 2267.19   2
  -1  -8   7 8581.83 2118.95   2
  -1  -8   8 2862.87 1451.32   2
  -1  -8   9 1929.21 1239.52   2
  -1  -8  10 1070.82 1048.05   2
  -1  -8  11-588.555 1158.96   2
  -1  -8  12 2268.64 1352.94   2
  -1  -8  13 1244.91 1235.35   2
  -1  -8  14 967.503 1047.12   2
  -1  -8  15 1775.37 1403.74   2
  -1  -8  16-840.855 855.398   2
  -1  -7 -21 1135.70 1141.59  10
  -1  -7 -20 1551.71 1295.44  10
  -1  -7 -19 895.327 974.537  10
  -1  -7 -18 1256.79 1003.64  10
  -1  -7 -17 1798.85 1263.02  10
  -1  -7 -16 1257.34 865.127  10
  -1  -7 -15 1053.71 561.458   7
  -1  -7 -15 2827.73 1309.52  10
  -1  -7 -14-349.377 742.719  10
  -1  -7 -14 258.107 311.521   7
  -1  -7 -13 2368.24 805.760   4
  -1  -7 -13 2480.68 777.292   7
  -1  -7 -13 2720.57 1106.87  10
  -1  -7 -12 9559.98 2087.25  10
  -1  -7 -12 8849.78 1450.00   7
  -1  -7 -12 9152.89 1387.90   4
  -1  -7 -11 20873.2 2907.81  10
  -1  -7 -11 17079.0 2049.59   7
  -1  -7 -11 14100.1 1710.76   4
  -1  -7 -10 16761.0 2572.80  10
  -1  -7 -10 12921.4 1618.92   4
  -1  -7 -10 16124.7 2018.16   7
  -1  -7  -9 4308.63 920.996   4
  -1  -7  -9 4688.86 1236.46   7
  -1  -7  -9 5769.38 1470.70  10
  -1  -7  -8 401.250 671.392   7
  -1  -7  -8 349.398 705.325  10
  -1  -7  -8-174.058 565.181   4
  -1  -7  -7 6309.85 1445.44  10
  -1  -7  -7 7876.85 1533.64   7
  -1  -7  -7 6776.88 1171.60   4
  -1  -7  -6 17711.0 2164.19   7
  -1  -7  -6 17268.5 1830.42   4
  -1  -7  -6 18108.4 2489.64  10
  -1  -7  -5 28886.0 2418.55   4
  -1  -7  -5 30342.7 2828.30   7
  -1  -7  -5 33386.7 3147.15  10
  -1  -7  -4 23488.7 2333.35   2
  -1  -7  -4 25487.2 2649.56   7
  -1  -7  -4 26442.1 2816.67  10
  -1  -7  -3 37616.3 3216.84  10
  -1  -7  -3 33309.1 2856.82   2
  -1  -7  -2 21328.1 2309.37   2
  -1  -7  -1 1185.49 779.244   2
  -1  -7   0 7915.58 1539.99   2
  -1  -7   1 20374.5 1102.87   6
  -1  -7   1 26766.6 2725.71   2
  -1  -7   2 36122.3 3204.11   2
  -1  -7   2 30598.4 1740.39   6
  -1  -7   3 25474.6 2893.61   2
  -1  -7   4 28968.4 3148.64   2
  -1  -7   5 2393.54 1344.79   2
  -1  -7   6 1217.42 1095.24   2
  -1  -7   7 1945.98 1053.92   2
  -1  -7   8 6869.50 1683.87   2
  -1  -7   9 7871.26 1890.12   2
  -1  -7  10 6541.67 1797.81   2
  -1  -7  11 2712.08 1370.88   1
  -1  -7  11 1795.94 1295.38   2
  -1  -7  12 602.782 939.351   2
  -1  -7  12 3627.32 1531.82   1
  -1  -7  13 1990.54 1264.40   1
  -1  -7  13-1017.56 1295.74   2
  -1  -7  14 1019.19 876.607   2
  -1  -7  14 2522.99 1557.90   1
  -1  -7  15-1619.70 1299.20   2
  -1  -7  15 1551.43 1564.81   1
  -1  -7  16 2209.91 1368.77   2
  -1  -7  16-217.351 797.661   1
  -1  -7  17-2983.72 1538.67   2
  -1  -7  17 408.126 923.918   1
  -1  -7  18 521.942 1068.47   2
  -1  -6 -23-617.863 803.217  10
  -1  -6 -22 621.518 953.042  10
  -1  -6 -21-459.323 708.874  10
  -1  -6 -20-770.425 784.134  10
  -1  -6 -19 847.071 892.781  10
  -1  -6 -18 1114.63 1049.92  10
  -1  -6 -17 1742.25 1001.17  10
  -1  -6 -16 4030.35 1429.19  10
  -1  -6 -16 1269.55 591.014   7
  -1  -6 -15 3332.91 965.092   4
  -1  -6 -15 3416.73 929.590   7
  -1  -6 -15 4816.12 1544.72  10
  -1  -6 -14 3632.01 905.527   7
  -1  -6 -14 2917.06 844.647   4
  -1  -6 -14 3959.02 1334.61  10
  -1  -6 -13 2113.29 791.495   4
  -1  -6 -13 2327.47 750.087   7
  -1  -6 -13 1623.12 774.952  10
  -1  -6 -12 191.483 464.990   4
  -1  -6 -12-280.979 374.044   7
  -1  -6 -12 107.760 705.824  10
  -1  -6 -11-25.2096 465.815   4
  -1  -6 -11 412.270 292.065   7
  -1  -6 -11 265.657 538.415  10
  -1  -6 -10 4328.55 956.986   4
  -1  -6 -10 3710.17 977.776   7
  -1  -6 -10 5341.09 1606.02  10
  -1  -6  -9 11168.3 1449.37   4
  -1  -6  -9 13795.8 1706.75   7
  -1  -6  -9 14620.5 2158.36  10
  -1  -6  -8 24455.3 2144.77   4
  -1  -6  -8 26637.0 2854.48  10
  -1  -6  -8 26160.6 2361.32   7
  -1  -6  -7 34527.3 2525.51   4
  -1  -6  -7 37612.2 2859.78   7
  -1  -6  -7 40983.0 3465.41  10
  -1  -6  -6 24410.1 2102.94   4
  -1  -6  -6 29623.5 2864.76  10
  -1  -6  -6 25041.0 2406.92   7
  -1  -6  -5 8948.61 1491.36   7
  -1  -6  -5 7578.81 1137.55   4
  -1  -6  -5 7863.68 1632.17  10
  -1  -6  -4 406.954 531.813   2
  -1  -6  -4 897.620 663.127  10
  -1  -6  -3 14886.1 1779.53   2
  -1  -6  -3 14545.3 1846.44  10
  -1  -6  -2 72975.0 4130.17   2
  -1  -6  -2 73015.4 4281.14  10
  -1  -6  -1 69769.9 4037.33  10
  -1  -6  -1 66508.3 4007.50   2
  -1  -6   0 57702.7 3764.31   2
  -1  -6   1 32621.6 2844.48   2
  -1  -6   1 29939.6 1444.68   6
  -1  -6   2 9520.88 1592.49   2
  -1  -6   3 1966.70 953.662   2
  -1  -6   4 30637.1 3047.52   2
  -1  -6   5 24953.2 2819.54   2
  -1  -6   6 17742.6 2412.92   2
  -1  -6   7 11220.9 2037.05   2
  -1  -6   8 9303.81 1841.62   1
  -1  -6   8 8289.95 1864.00   2
  -1  -6   9 4274.11 1376.33   1
  -1  -6   9 4427.51 1491.39   2
  -1  -6  10-619.314 601.635   1
  -1  -6  10 3076.39 1503.22   2
  -1  -6  11 1938.36 1468.44   2
  -1  -6  11 1926.32 1203.79   1
  -1  -6  12 2479.20 1437.20   2
  -1  -6  12 6355.12 1950.53   1
  -1  -6  13 6417.58 1961.86   2
  -1  -6  13 7632.85 2006.06   1
  -1  -6  14 5664.91 2018.51   2
  -1  -6  14 3984.81 1610.33   1
  -1  -6  15 841.398 1257.22   2
  -1  -6  15 869.564 1049.35   1
  -1  -6  16 1343.39 1367.75   2
  -1  -6  16-280.925 882.290   1
  -1  -6  17 1898.15 1454.62   2
  -1  -6  17 1426.62 1289.10   1
  -1  -6  18 1625.75 1520.26   2
  -1  -6  18-3239.17 1545.80   1
  -1  -6  19 541.050 1181.65   2
  -1  -6  19 2187.04 1461.75   1
  -1  -6  20 1640.00 1606.68   2
  -1  -5 -22 559.892 978.541  10
  -1  -5 -21-616.843 870.037  10
  -1  -5 -20 210.734 805.546  10
  -1  -5 -19 441.519 709.559  10
  -1  -5 -18 1750.76 920.318   4
  -1  -5 -18 2120.32 1274.33  10
  -1  -5 -17 1600.34 755.241   4
  -1  -5 -17 2380.67 1348.43  10
  -1  -5 -16 738.905 525.229   4
  -1  -5 -16 631.423 416.695   7
  -1  -5 -16 181.646 501.850  10
  -1  -5 -15-91.2880 484.524   4
  -1  -5 -15-85.2422 247.918   7
  -1  -5 -15 413.096 476.235  10
  -1  -5 -14 1002.69 594.751   4
  -1  -5 -14 1585.44 562.134   7
  -1  -5 -14 1969.02 1057.58  10
  -1  -5 -13 4917.85 958.912   7
  -1  -5 -13 4874.69 1060.60   4
  -1  -5 -13 6070.90 1491.81  10
  -1  -5 -12 13935.4 1542.04   7
  -1  -5 -12 12683.1 2076.69  10
  -1  -5 -12 14740.0 1705.62   4
  -1  -5 -11 19517.4 1909.06   4
  -1  -5 -11 20719.9 1860.24   7
  -1  -5 -11 23058.8 2751.06  10
  -1  -5 -10 19583.3 2445.80  10
  -1  -5 -10 18598.7 1749.95   7
  -1  -5 -10 18449.8 1821.75   4
  -1  -5  -9 10644.1 1380.99   7
  -1  -5  -9 8241.40 1190.28   4
  -1  -5  -9 11584.1 1892.00  10
  -1  -5  -8 137.793 324.807   4
  -1  -5  -8 581.655 781.500  10
  -1  -5  -8 1051.83 642.745   7
  -1  -5  -7 8181.40 1207.56   7
  -1  -5  -7 8061.11 1123.62   4
  -1  -5  -7 8421.61 1511.50  10
  -1  -5  -6 45495.6 2770.42   4
  -1  -5  -6 45021.6 2855.87   7
  -1  -5  -6 50789.8 3594.22  10
  -1  -5  -5 99624.9 4409.13   4
  -1  -5  -5 105418. 4677.89   7
  -1  -5  -5 111400. 5312.85  10
  -1  -5  -4 115390. 4903.80   2
  -1  -5  -4 111254. 4756.45   4
  -1  -5  -3 124023. 5481.25  10
  -1  -5  -3 112805. 4862.95   2
  -1  -5  -2 1743.59 663.782  10
  -1  -5  -2 1359.20 705.382   2
  -1  -5  -1 6932.68 1141.41  10
  -1  -5  -1 8245.51 1202.35   2
  -1  -5   0 38931.2 2603.18  10
  -1  -5   0 41461.5 2770.10   2
  -1  -5   0 32251.4 1175.19   6
  -1  -5   0 29762.0 1144.74   6
  -1  -5   1 62537.0 3735.34   2
  -1  -5   2 65386.7 3903.36   2
  -1  -5   3 44132.4 3256.19   2
  -1  -5   3 38962.9 1762.29   3
  -1  -5   4 30677.4 2743.82   2
  -1  -5   5 5501.05 1287.08   1
  -1  -5   5 5681.85 1402.06   2
  -1  -5   6 5549.00 1256.85   1
  -1  -5   6 9845.08 1755.72   2
  -1  -5   7 10263.2 1870.96   2
  -1  -5   7 9083.31 1650.78   1
  -1  -5   8 27010.8 2913.03   2
  -1  -5   8 25566.1 2795.16   1
  -1  -5   9 26489.2 2911.96   2
  -1  -5   9 23923.6 2705.33   1
  -1  -5  10 12946.2 2157.73   1
  -1  -5  10 9832.18 2023.27   2
  -1  -5  11 4327.53 1298.43   1
  -1  -5  11 2432.48 1265.09   2
  -1  -5  12 721.488 1170.68   1
  -1  -5  12 1332.29 998.116   2
  -1  -5  13-230.970 1091.58   1
  -1  -5  13 335.929 890.039   2
  -1  -5  14 1221.13 1089.90   1
  -1  -5  14 1514.54 1044.29   2
  -1  -5  15 2004.52 1279.99   1
  -1  -5  15 935.647 1256.83   2
  -1  -5  16 3165.65 1720.71   2
  -1  -5  16 2125.48 1446.71   1
  -1  -5  17 1785.56 1353.80   2
  -1  -5  17-360.860 980.461   1
  -1  -5  18 2128.51 1511.52   2
  -1  -5  18 1251.62 1242.37   1
  -1  -5  19-378.315 982.188   1
  -1  -5  19 1829.25 1572.69   2
  -1  -5  20 603.088 1039.18   1
  -1  -5  20 2997.05 1830.55   2
  -1  -5  21-264.812 1069.67   2
  -1  -4 -22 341.046 559.942  10
  -1  -4 -21-257.878 527.974  10
  -1  -4 -20 371.466 644.611   4
  -1  -4 -20 1278.79 963.544  10
  -1  -4 -19 23.9781 477.799   4
  -1  -4 -19 950.706 857.206  10
  -1  -4 -18 199.645 545.524   4
  -1  -4 -18 393.793 706.221  10
  -1  -4 -17 2516.38 1012.36   4
  -1  -4 -16 1971.81 660.524   7
  -1  -4 -16 1642.43 884.359   4
  -1  -4 -15 6110.10 1099.63   7
  -1  -4 -15 5724.11 1226.72   4
  -1  -4 -14 8589.34 1207.60   7
  -1  -4 -14 7757.40 1392.05   4
  -1  -4 -13 5880.32 1135.61   4
  -1  -4 -13 5588.26 976.756   7
  -1  -4 -12 1748.81 753.853   4
  -1  -4 -12 408.228 358.395   7
  -1  -4 -11 3716.73 973.818   4
  -1  -4 -11 2934.80 672.766   7
  -1  -4 -10 18399.2 1831.49   4
  -1  -4 -10 21660.9 1702.27   7
  -1  -4  -9 39463.0 2369.76   7
  -1  -4  -9 38906.1 2602.95   4
  -1  -4  -8 58342.2 3184.65   4
  -1  -4  -8 59360.8 2968.41   7
  -1  -4  -7 49545.0 2677.00   7
  -1  -4  -7 47363.3 2812.06   4
  -1  -4  -6 20873.1 1714.05   4
  -1  -4  -6 18990.4 1583.15   7
  -1  -4  -5 1659.54 523.619   4
  -1  -4  -5 977.938 443.810   7
  -1  -4  -4 5705.23 812.485   2
  -1  -4  -4 6375.55 1023.33   7
  -1  -4  -4 6507.76 892.732   4
  -1  -4  -3 26372.2 1865.55   2
  -1  -4  -3 30269.4 2219.48  10
  -1  -4  -2 70020.3 3359.63   2
  -1  -4  -2 80545.4 3743.21  10
  -1  -4  -1 71269.0 3432.11   2
  -1  -4  -1 72162.4 3473.97  10
  -1  -4   0 209980. 6526.24  10
  -1  -4   0 196579. 6644.41   2
  -1  -4   1 127977. 5282.86   2
  -1  -4   1 135567. 4890.53  10
  -1  -4   2 22751.0 2058.15   2
  -1  -4   2 19340.1 1189.75   3
  -1  -4   3 11966.6 1374.11   1
  -1  -4   3 11058.2 1447.64   2
  -1  -4   3 7849.33 587.681   3
  -1  -4   4 59408.9 3598.81   2
  -1  -4   4 64140.9 3479.72   1
  -1  -4   5 66087.2 3860.81   2
  -1  -4   5 70964.3 3854.48   1
  -1  -4   6 111286. 5486.16   2
  -1  -4   6 121354. 5521.07   1
  -1  -4   7 34463.3 2887.47   2
  -1  -4   7 35971.6 2883.39   1
  -1  -4   8 9751.46 1606.40   1
  -1  -4   8 6776.02 1244.41   2
  -1  -4   9 1311.76 893.809   1
  -1  -4   9 1023.31 808.934   2
  -1  -4  10 1761.26 946.097   1
  -1  -4  10 2367.91 932.556   2
  -1  -4  11 5926.62 1480.73   1
  -1  -4  11 4362.98 1261.58   2
  -1  -4  12 11589.7 1934.10   1
  -1  -4  12 10621.1 2026.31   2
  -1  -4  13 9274.29 1896.62   1
  -1  -4  13 7247.51 1751.69   2
  -1  -4  14 4140.38 1480.07   1
  -1  -4  14 3999.88 1551.06   2
  -1  -4  15 2574.41 1210.43   1
  -1  -4  15 2120.30 955.692   2
  -1  -4  16 179.780 972.858   1
  -1  -4  16 1314.71 1195.14   2
  -1  -4  17-25.9687 727.600   1
  -1  -4  17 1430.73 1173.74   2
  -1  -4  18 2399.96 1482.29   1
  -1  -4  18 192.582 966.161   2
  -1  -4  19-908.406 794.919   1
  -1  -4  19-1005.66 1185.68   2
  -1  -4  20 1507.92 1519.57   1
  -1  -4  20-744.376 1101.05   2
  -1  -4  21 2443.37 1484.82   1
  -1  -4  21 7.90906 1031.67   2
  -1  -4  22 1065.86 1188.33   2
  -1  -3 -23 41.0925 530.972   5
  -1  -3 -22 1444.21 1054.57   5
  -1  -3 -22 83.2010 425.614   4
  -1  -3 -21 234.055 630.040   5
  -1  -3 -21 269.317 491.060   4
  -1  -3 -21 515.378 781.306  10
  -1  -3 -20 50.6115 573.526   4
  -1  -3 -20 1202.50 888.929  10
  -1  -3 -19 1204.41 880.626   4
  -1  -3 -18 2540.96 1133.15   4
  -1  -3 -17 2204.17 1036.61   4
  -1  -3 -16 1823.40 931.994   4
  -1  -3 -16 331.455 443.071   7
  -1  -3 -15 472.755 404.367   7
  -1  -3 -15-866.960 670.707   4
  -1  -3 -14 1557.98 557.580   7
  -1  -3 -14-333.421 588.921   4
  -1  -3 -13 7349.93 1048.29   7
  -1  -3 -13 8694.84 1366.73   4
  -1  -3 -12 18609.4 1586.34   7
  -1  -3 -12 18198.8 1943.94   4
  -1  -3 -11 28336.0 2358.81   4
  -1  -3 -11 28428.0 1929.24   7
  -1  -3 -10 29974.5 2265.89   4
  -1  -3 -10 26795.6 1793.00   7
  -1  -3  -9 12367.5 1434.20   4
  -1  -3  -9 12864.5 1168.57   7
  -1  -3  -8 509.520 291.715   7
  -1  -3  -8 1303.61 547.761   4
  -1  -3  -7 24452.6 1890.23   4
  -1  -3  -7 26931.8 1631.52   7
  -1  -3  -6 81760.1 3725.13   4
  -1  -3  -6 89828.5 3360.71   7
  -1  -3  -5 156096. 5433.38   4
  -1  -3  -5 154731. 5009.10   7
  -1  -3  -4 165272. 5554.13   4
  -1  -3  -4 166234. 5297.38   7
  -1  -3  -3 91381.6 3605.30   4
  -1  -3  -3 87354.9 3237.33   2
  -1  -3  -2 6669.72 816.303   2
  -1  -3  -1 7987.22 933.760   2
  -1  -3   0 187675. 6155.07   2
  -1  -3   0 187318. 4916.27   6
  -1  -3   1 164670. 4724.41   6
  -1  -3   1 163715. 4824.07   3
  -1  -3   1 168896. 5681.21   2
  -1  -3   1 178147. 5254.97  10
  -1  -3   2 147584. 5266.08   2
  -1  -3   2 154147. 5133.32   1
  -1  -3   2 141906. 4067.86   3
  -1  -3   2 147681. 4557.42  10
  -1  -3   3 98822.1 3844.87   1
  -1  -3   3 93151.2 3973.65   2
  -1  -3   4 43028.9 2642.63   2
  -1  -3   4 47785.9 2667.02   1
  -1  -3   5 11146.2 1324.61   1
  -1  -3   5 11315.8 1353.43   2
  -1  -3   6 48.1563 626.945   2
  -1  -3   6 692.077 631.928   1
  -1  -3   7 43971.6 3029.58   2
  -1  -3   7 50356.4 3149.24   1
  -1  -3   8 12564.7 1604.55   2
  -1  -3   8 15658.7 1809.83   1
  -1  -3   9 35120.9 2907.39   2
  -1  -3   9 41394.9 3094.70   1
  -1  -3  10 26641.2 2664.26   2
  -1  -3  10 32161.8 2905.87   1
  -1  -3  11 13089.8 1877.88   1
  -1  -3  11 10980.0 1789.81   2
  -1  -3  12 914.217 618.801   2
  -1  -3  12 2419.96 1186.49   1
  -1  -3  13-180.561 571.609   2
  -1  -3  13-810.173 550.919   1
  -1  -3  14 1677.86 618.706   2
  -1  -3  14 2359.84 1229.85   1
  -1  -3  15 3361.33 1370.28   2
  -1  -3  15 3215.68 1418.78   1
  -1  -3  16 2394.18 1085.93   2
  -1  -3  16 2953.90 1352.06   1
  -1  -3  17 3531.55 1551.64   1
  -1  -3  17 396.655 699.724   2
  -1  -3  18 703.870 656.120   2
  -1  -3  18 1774.83 1140.10   1
  -1  -3  19 439.865 1008.46   1
  -1  -3  19 690.128 783.977   2
  -1  -3  20 3609.02 1753.52   1
  -1  -3  20-328.952 969.529   2
  -1  -3  21-1234.84 1314.49   1
  -1  -3  21 740.651 1067.36   2
  -1  -3  22 617.927 968.794   2
  -1  -2 -24 1657.53 1247.51   5
  -1  -2 -24-886.952 994.147   4
  -1  -2 -23 1065.14 1101.79   5
  -1  -2 -23-1277.40 865.368   4
  -1  -2 -22-48.4932 580.752   4
  -1  -2 -22 206.584 841.089   5
  -1  -2 -21 1376.64 1232.65   5
  -1  -2 -21 355.783 621.141   4
  -1  -2 -20 576.668 656.990   4
  -1  -2 -19-519.365 625.187   4
  -1  -2 -18 115.816 616.707   4
  -1  -2 -17 2736.86 1090.07   4
  -1  -2 -16 5934.96 1503.90   4
  -1  -2 -16 4770.37 954.842   7
  -1  -2 -15 15817.0 2128.55   4
  -1  -2 -15 12384.7 1471.01   7
  -1  -2 -14 10072.5 1257.66   7
  -1  -2 -14 10592.5 1628.85   4
  -1  -2 -13 2151.86 605.691   4
  -1  -2 -13 2780.96 614.773   7
  -1  -2 -12 555.062 500.209   4
  -1  -2 -12 586.089 369.181   7
  -1  -2 -11 4992.82 966.668   4
  -1  -2 -11 5573.97 809.445   7
  -1  -2 -10 25759.8 2141.10   4
  -1  -2 -10 23667.0 1593.13   7
  -1  -2  -9 54978.8 2477.80   7
  -1  -2  -9 58679.2 3197.59   4
  -1  -2  -8 103183. 3580.06   7
  -1  -2  -8 106608. 4449.04   4
  -1  -2  -7 84628.9 3685.41   4
  -1  -2  -7 83037.5 2919.79   7
  -1  -2  -6 44116.7 1806.80   7
  -1  -2  -6 39122.1 2341.26   4
  -1  -2  -5 490.680 323.195   4
  -1  -2  -5 1182.04 326.609   7
  -1  -2  -4 30197.7 1450.08   7
  -1  -2  -4 32305.9 1936.01   4
  -1  -2  -3 138934. 3912.60   2
  -1  -2  -3 145527. 4716.02   4
  -1  -2  -2 295953. 7989.11   4
  -1  -2  -2 280221. 7313.17   2
  -1  -2  -1 269284. 7093.74   2
  -1  -2  -1 257784. 6539.35   6
  -1  -2   0 326980. 8417.93   2
  -1  -2   0 315908. 7862.58   6
  -1  -2   0 318132. 8119.24   3
  -1  -2   1 8811.16 794.780   1
  -1  -2   1 9665.11 876.206   2
  -1  -2   1 8636.54 723.743   6
  -1  -2   2 1143.53 300.185   9
  -1  -2   2 1154.26 469.573   2
  -1  -2   2 598.236 284.740   1
  -1  -2   2 1116.14 260.254  10
  -1  -2   3 19636.1 1208.65   9
  -1  -2   3 22976.0 1595.45   2
  -1  -2   3 20167.1 1375.99   1
  -1  -2   4 146282. 4566.12   1
  -1  -2   4 139392. 4752.33   2
  -1  -2   5 219192. 6522.68   1
  -1  -2   5 208993. 6696.78   2
  -1  -2   6 118077. 4870.03   2
  -1  -2   6 121334. 4714.02   1
  -1  -2   6 114465. 3381.54   3
  -1  -2   7 8191.37 1254.64   2
  -1  -2   7 9585.53 749.429   3
  -1  -2   7 8705.39 1165.41   1
  -1  -2   8 15093.6 1703.12   2
  -1  -2   8 13522.7 1001.83   3
  -1  -2   8 14303.7 1602.45   1
  -1  -2   9 41.8019 405.621   2
  -1  -2   9 1008.19 290.743   3
  -1  -2   9 1186.33 701.773   1
  -1  -2  10 5361.13 1149.75   1
  -1  -2  10 3369.11 632.784   3
  -1  -2  10 4861.13 1191.28   2
  -1  -2  11 11793.9 1808.83   2
  -1  -2  11 9939.00 1111.14   3
  -1  -2  11 10077.0 1630.75   1
  -1  -2  12 10826.4 1852.11   2
  -1  -2  12 12043.2 1896.30   1
  -1  -2  13 7910.17 1756.88   2
  -1  -2  13 8557.16 1714.15   1
  -1  -2  14 5613.81 1476.39   2
  -1  -2  14 5861.81 1432.73   1
  -1  -2  15 1405.83 1015.56   1
  -1  -2  15 2382.56 1053.42   2
  -1  -2  16 1668.61 900.929   1
  -1  -2  16 1415.22 639.475   2
  -1  -2  17-1508.48 1212.93   2
  -1  -2  17 860.036 948.767   1
  -1  -2  18-1619.35 1220.50   2
  -1  -2  18 1140.83 1044.95   1
  -1  -2  19-275.940 944.886   2
  -1  -2  19 997.214 1156.52   1
  -1  -2  20 1491.62 1062.78   1
  -1  -2  20 696.810 952.492   2
  -1  -2  21 2416.79 1630.00   1
  -1  -2  21-1658.38 1156.95   2
  -1  -2  22 1640.28 1402.94   1
  -1  -1 -23 285.590 632.421   5
  -1  -1 -23-296.437 689.698   4
  -1  -1 -22 56.8028 554.293   5
  -1  -1 -22-994.848 982.697   4
  -1  -1 -21 1959.72 1330.39   5
  -1  -1 -21-1536.37 901.196   4
  -1  -1 -20 1121.42 895.955   5
  -1  -1 -20-34.0020 641.319   4
  -1  -1 -19 844.289 651.296   4
  -1  -1 -18 1370.64 805.650   4
  -1  -1 -17 2699.17 1106.82   4
  -1  -1 -16-419.895 602.539   4
  -1  -1 -15 1198.57 852.637   4
  -1  -1 -14 10827.6 1847.79   4
  -1  -1 -13 9708.26 1611.90   4
  -1  -1 -12 16477.6 2000.08   4
  -1  -1 -12 18103.9 1574.65   7
  -1  -1 -11 22863.4 2206.23   4
  -1  -1 -11 22829.6 1678.29   7
  -1  -1 -10 10932.2 1058.47   7
  -1  -1 -10 11292.8 1493.63   4
  -1  -1  -9 971.637 436.072   4
  -1  -1  -9 780.694 328.955   7
  -1  -1  -8 899.051 589.227   4
  -1  -1  -8 1053.23 323.137   7
  -1  -1  -7 6902.04 652.065   7
  -1  -1  -7 7957.81 1039.89   4
  -1  -1  -6 31545.8 1379.59   7
  -1  -1  -6 35910.9 2141.79   4
  -1  -1  -5 112240. 3084.10   7
  -1  -1  -5 109612. 4126.54   4
  -1  -1  -4 212391. 6446.54   4
  -1  -1  -4 231930. 5258.94   7
  -1  -1  -3 260646. 7460.78   4
  -1  -1  -2 147017. 4552.68   4
  -1  -1  -1 5579.85 648.203   4
  -1  -1  -1 6168.49 432.705   2
  -1  -1  -1 5298.20 515.094   6
  -1  -1  -1 5334.86 649.322   8
  -1  -1  -1 4598.90 576.580   5
  -1  -1   0 448664. 10592.8   2
  -1  -1   0 419839. 10676.2   6
  -1  -1   0 420320. 10975.3   5
  -1  -1   0 447335. 11022.8   8
  -1  -1   0 423397. 10524.0   7
  -1  -1   1 34240.3 1658.64   8
  -1  -1   1 36054.5 1591.78   2
  -1  -1   1 35212.4 1610.61   6
  -1  -1   1 36077.9 1294.90   1
  -1  -1   1 37216.9 1571.19   7
  -1  -1   1 35326.2 1780.26   5
  -1  -1   2 466385. 11113.5   9
  -1  -1   2 486092. 12025.1   2
  -1  -1   2 499406. 12105.8   6
  -1  -1   2 491365. 11587.2   1
  -1  -1   3 151121. 4177.99   9
  -1  -1   3 162878. 4964.33   2
  -1  -1   3 164960. 4661.80   1
  -1  -1   3 145901. 4236.71   3
  -1  -1   4 63882.3 2827.82   2
  -1  -1   4 59850.3 2200.46   3
  -1  -1   4 66507.9 2665.53   1
  -1  -1   4 59640.0 2287.60   9
  -1  -1   5 21150.8 1244.07   3
  -1  -1   5 24715.4 1651.43   1
  -1  -1   5 22033.3 1635.80   2
  -1  -1   6 556.835 309.650   2
  -1  -1   6 270.043 366.532   1
  -1  -1   6 59.3217 240.083   3
  -1  -1   7 20429.5 1822.12   2
  -1  -1   7 21427.2 1495.96   3
  -1  -1   7 24169.9 1899.07   1
  -1  -1   8 33507.1 2500.11   2
  -1  -1   8 38935.3 2181.05   3
  -1  -1   8 32207.4 2428.58   1
  -1  -1   9 153737. 6285.30   2
  -1  -1   9 160204. 5573.90   3
  -1  -1   9 160449. 6410.28   1
  -1  -1  10 46869.2 3253.00   1
  -1  -1  10 40879.8 3044.98   2
  -1  -1  10 41829.0 2520.22   3
  -1  -1  11 13589.6 1489.65   3
  -1  -1  11 14372.3 1888.22   1
  -1  -1  11 11514.4 1606.90   2
  -1  -1  12 199.891 499.778   1
  -1  -1  12 273.939 433.669   2
  -1  -1  12 497.062 463.526   3
  -1  -1  13 2030.58 1025.06   1
  -1  -1  13 3288.26 1039.29   2
  -1  -1  13 3095.92 857.078   3
  -1  -1  14 7994.75 1618.80   2
  -1  -1  14 7179.74 1612.60   1
  -1  -1  14 4737.86 1051.78   3
  -1  -1  15 4669.39 1461.69   2
  -1  -1  15 4406.67 1001.42   3
  -1  -1  15 4378.17 1233.72   1
  -1  -1  16 2387.18 1032.83   2
  -1  -1  16 5093.31 1529.24   1
  -1  -1  17 659.264 652.977   2
  -1  -1  17 1525.18 895.550   1
  -1  -1  18-281.152 579.167   2
  -1  -1  18 899.390 1173.13   1
  -1  -1  19 1599.58 1162.14   2
  -1  -1  19 1350.81 1329.25   1
  -1  -1  20 1222.69 817.904   2
  -1  -1  20 302.806 886.352   1
  -1  -1  21-1561.10 1499.15   2
  -1  -1  21 1280.90 997.739   1
  -1  -1  22 1447.95 1197.66   1
  -1   0 -23-619.981 564.154   5
  -1   0 -22-750.588 926.789   4
  -1   0 -22 1019.61 1032.10   5
  -1   0 -21-250.780 724.783   4
  -1   0 -21 428.058 832.787   5
  -1   0 -20-761.735 928.245   4
  -1   0 -20 374.893 891.192   5
  -1   0 -19 1324.68 1056.59   5
  -1   0 -19-322.076 731.750   4
  -1   0 -18-517.544 785.988   4
  -1   0 -17 711.528 569.263   4
  -1   0 -16 7149.36 1638.08   4
  -1   0 -15 6767.14 1578.11   4
  -1   0 -14 4724.31 1346.01   4
  -1   0 -13 7139.01 1503.57   4
  -1   0 -12 2524.22 910.434   4
  -1   0 -11 5577.00 1347.07   4
  -1   0 -10 40936.2 2944.86   4
  -1   0  -9 130719. 5568.98   4
  -1   0  -8 184833. 6687.39   4
  -1   0  -7 112515. 4605.92   4
  -1   0  -6 5579.93 896.504   4
  -1   0  -5 75205.4 2446.86   2
  -1   0  -5 84630.8 3384.30   4
  -1   0  -4 286697. 7872.68   4
  -1   0  -4 274376. 6786.27   2
  -1   0  -3 318201. 8273.03   4
  -1   0  -3 302155. 7670.91   1
  -1   0  -2 115107. 3752.95   4
  -1   0  -2 111516. 2995.53   2
  -1   0  -2 122046. 3472.54   9
  -1   0  -2 117878. 3203.06   1
  -1   0  -2 113303. 3700.61   6
  -1   0  -1 36299.5 1337.96   9
  -1   0  -1 33634.4 1541.22   4
  -1   0  -1 33774.0 1160.72   7
  -1   0  -1 34089.0 1234.59   1
  -1   0  -1 32700.1 1582.69   6
  -1   0   0 33707.6 1401.86   4
  -1   0   0 34253.4 1262.33   7
  -1   0   0 32736.7 1166.54   9
  -1   0   0 30090.9 1373.45   5
  -1   0   1 16541.2 816.846   8
  -1   0   1 18102.0 949.532   7
  -1   0   1 16494.4 1093.81   6
  -1   0   1 18074.9 1037.50   5
  -1   0   2 90811.2 2821.81   8
  -1   0   2 93236.4 3118.97   3
  -1   0   2 93649.8 3071.20   7
  -1   0   2 96774.5 3138.28   5
  -1   0   3 78147.4 2835.42   3
  -1   0   3 75021.2 2857.52   5
  -1   0   4 185997. 5179.79  10
  -1   0   4 197326. 5712.32   3
  -1   0   5 154176. 4972.82   3
  -1   0   5 151464. 5050.51   1
  -1   0   6 108887. 4108.24   3
  -1   0   6 102684. 4110.05   1
  -1   0   7 53571.7 2831.68   3
  -1   0   7 56492.8 2999.45   1
  -1   0   8 9591.95 1296.01   1
  -1   0   8 9437.87 1193.97   3
  -1   0   9 10629.0 1447.28   1
  -1   0   9 11509.5 1357.57   3
  -1   0  10 4103.98 941.026   3
  -1   0  10 5967.66 1275.44   1
  -1   0  11 15896.2 1786.58   3
  -1   0  11 16156.4 2020.52   1
  -1   0  12 12385.8 1802.74   2
  -1   0  12 13910.5 1855.65   3
  -1   0  12 15853.3 2042.00   1
  -1   0  13 11479.2 1768.21   2
  -1   0  13 14022.1 2119.38   1
  -1   0  13 13683.1 1792.31   3
  -1   0  14 6499.77 1647.03   1
  -1   0  14 6561.14 1290.55   3
  -1   0  14 4877.52 1293.84   2
  -1   0  15 1112.86 776.991   2
  -1   0  15 1158.95 929.289   1
  -1   0  15 1525.52 743.653   3
  -1   0  16-147.156 752.105   1
  -1   0  16 2350.53 1004.30   2
  -1   0  16 1068.57 614.804   3
  -1   0  17 1720.29 1053.23   2
  -1   0  17 586.526 523.761   3
  -1   0  18 1664.64 1167.61   1
  -1   0  18-73.7515 572.728   2
  -1   0  18 753.028 658.032   3
  -1   0  19-18.3151 569.527   2
  -1   0  19 1131.42 1009.39   1
  -1   0  20 904.726 947.030   2
  -1   0  20 786.046 1115.59   1
  -1   0  21 1466.16 1137.95   2
  -1   0  21 601.728 1001.83   1
  -1   0  22 1814.05 1602.65   1
  -1   1 -22 181.255 946.919   5
  -1   1 -21 485.974 741.580   4
  -1   1 -21 2013.37 1321.01   5
  -1   1 -20 927.358 1082.88   5
  -1   1 -20-708.155 1005.81   4
  -1   1 -19-101.969 499.824   4
  -1   1 -19 2142.74 1302.63   5
  -1   1 -18 2753.44 1376.80   5
  -1   1 -18 2061.84 1053.54   4
  -1   1 -17 836.674 766.431   4
  -1   1 -16-347.535 815.195   4
  -1   1 -15-600.511 579.163   4
  -1   1 -14 5720.66 1345.11   4
  -1   1 -13 7695.67 1603.36   4
  -1   1 -12 38561.2 3237.86   4
  -1   1 -11 19310.7 2194.26   4
  -1   1 -10 6715.93 1406.35   4
  -1   1  -9 969.090 786.638   4
  -1   1  -8 1498.09 910.769   4
  -1   1  -7 10573.6 1363.13   4
  -1   1  -6 35402.3 2325.31   4
  -1   1  -5 126686. 4564.48   9
  -1   1  -5 127483. 4692.16   4
  -1   1  -4 285211. 8102.22   4
  -1   1  -4 276945. 7951.63   9
  -1   1  -3 271759. 7204.43   4
  -1   1  -3 258246. 7170.47   9
  -1   1  -2 59931.1 2375.69   9
  -1   1  -2 57360.4 2241.94   4
  -1   1  -1 18606.6 1006.38   4
  -1   1  -1 15402.5 1056.43   2
  -1   1  -1 18298.2 1228.91   9
  -1   1   0 141947. 3797.55   4
  -1   1   0 138575. 4161.26   7
  -1   1   0 146481. 4345.58   9
  -1   1   1 298145. 7355.09   4
  -1   1   1 300413. 8120.91   7
  -1   1   1 295701. 8146.74   6
  -1   1   1 320625. 7604.85   5
  -1   1   2 748098. 18784.9   3
  -1   1   2 792521. 18028.4   5
  -1   1   3 24022.1 1611.82   3
  -1   1   3 26023.2 1251.67   5
  -1   1   4 94369.0 2926.80   4
  -1   1   4 92363.3 3171.51   5
  -1   1   4 96157.4 3737.55   3
  -1   1   5 3880.32 505.852   4
  -1   1   5 3592.38 775.555   3
  -1   1   6 12408.7 1369.72   3
  -1   1   7 53845.6 3054.32   3
  -1   1   8 96355.6 4558.61   3
  -1   1   9 75430.3 3994.27   1
  -1   1   9 80987.8 4195.08   3
  -1   1  10 16490.3 1939.31   3
  -1   1  10 14248.6 1716.75   1
  -1   1  11 15815.5 2034.32   3
  -1   1  11 16028.4 1990.91   1
  -1   1  12-85.7757 553.773   1
  -1   1  12 1124.37 1038.78   3
  -1   1  13 632.912 836.063   1
  -1   1  13 2379.22 980.420   3
  -1   1  14 4024.98 1175.40   1
  -1   1  14 4429.45 1208.44   3
  -1   1  15 6254.34 1560.81   2
  -1   1  15 5150.26 1332.08   1
  -1   1  15 9177.75 1717.30   3
  -1   1  16 4303.09 1270.95   2
  -1   1  16 7331.19 1656.84   1
  -1   1  16 5707.60 1458.22   3
  -1   1  17 2982.73 1138.84   2
  -1   1  17 3853.28 1468.11   1
  -1   1  17 2495.76 1149.06   3
  -1   1  18 1557.16 728.994   2
  -1   1  18 1209.84 1013.67   3
  -1   1  18 1812.78 1250.99   1
  -1   1  19 386.385 696.528   2
  -1   1  19 445.520 890.429   1
  -1   1  19-247.911 622.730   3
  -1   1  20-1438.79 946.541   1
  -1   1  20-69.5691 603.427   2
  -1   1  21 92.7621 885.813   1
  -1   1  21-958.411 925.069   2
  -1   1  22 982.571 812.315   1
  -1   1  23 3028.90 1530.13   1
  -1   2 -22 34.8713 720.097   5
  -1   2 -21 1037.59 1315.56   5
  -1   2 -20 577.237 940.926   5
  -1   2 -19-1037.01 992.551   4
  -1   2 -19 949.237 1086.68   5
  -1   2 -18 1895.44 1310.32   5
  -1   2 -18 202.237 530.409   4
  -1   2 -17 4801.64 1805.08   5
  -1   2 -17 2415.98 1141.23   4
  -1   2 -16 6326.00 1790.23   5
  -1   2 -16 4285.10 1317.01   4
  -1   2 -15 3273.35 1107.65   4
  -1   2 -14 3043.82 1017.39   4
  -1   2 -13 2128.09 909.849   4
  -1   2 -12 3004.63 844.939   4
  -1   2 -11 6282.28 1334.14   4
  -1   2 -10 23489.0 2503.80   4
  -1   2  -9 49399.9 3463.24   4
  -1   2  -8 68585.5 3883.66   4
  -1   2  -7 45398.5 2850.66   9
  -1   2  -7 46654.8 2969.04   4
  -1   2  -6 6876.13 1029.23   9
  -1   2  -6 7970.58 1183.04   4
  -1   2  -5 2920.52 660.017   4
  -1   2  -5 3624.50 750.220   9
  -1   2  -4 78104.6 3481.80   9
  -1   2  -4 78783.8 3448.16   4
  -1   2  -3 110474. 4129.19   4
  -1   2  -3 108520. 4292.89   9
  -1   2  -2 208392. 6074.69   4
  -1   2  -2 203877. 6497.46   9
  -1   2  -1 234348. 6532.48   4
  -1   2  -1 242265. 7290.97   9
  -1   2  -1 249522. 6919.03   3
  -1   2   0 131434. 3757.62   4
  -1   2   0 137143. 4487.78   3
  -1   2   1 15959.1 763.651   4
  -1   2   1 15632.4 1324.27   3
  -1   2   2 29593.2 1910.96   3
  -1   2   3 152792. 3934.57   8
  -1   2   3 154116. 3949.83   5
  -1   2   4 68901.8 3319.31   3
  -1   2   5 119194. 4899.86   3
  -1   2   5 113995. 3196.03   4
  -1   2   6 66636.3 2370.24   4
  -1   2   6 75154.9 3752.88   3
  -1   2   7 18111.7 1926.25   3
  -1   2   8 2898.33 825.685   3
  -1   2   9 386.627 485.443   3
  -1   2  10 3491.15 1130.92   3
  -1   2  11 26562.8 2747.48   3
  -1   2  12 23958.5 2661.19   3
  -1   2  12 18804.7 2262.47   1
  -1   2  13 13509.8 1986.15   1
  -1   2  13 13655.8 2073.45   3
  -1   2  14 2276.43 1146.62   3
  -1   2  14 2565.50 1024.66   1
  -1   2  15 1330.23 965.747   1
  -1   2  15 1332.09 846.745   3
  -1   2  16 356.807 678.275   1
  -1   2  16 874.014 849.177   3
  -1   2  17 800.717 819.499   3
  -1   2  17 522.535 1067.85   1
  -1   2  18 492.906 881.318   3
  -1   2  18 2096.38 1227.62   1
  -1   2  19-947.470 1076.05   2
  -1   2  19-1330.53 1072.32   1
  -1   2  19 259.188 714.730   3
  -1   2  20 268.847 900.474   1
  -1   2  20-1400.84 899.321   2
  -1   2  20 1456.77 1035.52   3
  -1   2  21 2126.41 1294.41   1
  -1   2  21 326.125 739.712   3
  -1   2  22-2115.87 1356.04   1
  -1   2  23-136.834 753.631   1
  -1   3 -21-369.248 726.367   5
  -1   3 -20 1256.74 992.894   5
  -1   3 -19 2351.54 1275.38   5
  -1   3 -18 297.252 896.139   5
  -1   3 -17 1913.37 1351.31   5
  -1   3 -16 327.320 685.479   5
  -1   3 -16 596.438 826.840   4
  -1   3 -15 1493.58 1182.82   5
  -1   3 -15-615.512 739.445   4
  -1   3 -14 4378.01 1579.64   5
  -1   3 -14 3940.97 1198.73   4
  -1   3 -13 8491.64 1786.13   4
  -1   3 -12 21919.0 2585.83   4
  -1   3 -11 6452.02 1293.66   4
  -1   3 -10 11103.0 1762.69   4
  -1   3  -9-98.5826 459.351   4
  -1   3  -9-153.708 574.883   9
  -1   3  -8 12381.6 1552.70   9
  -1   3  -8 12528.4 1685.41   4
  -1   3  -7 46474.8 3091.34   4
  -1   3  -7 41637.9 2904.81   9
  -1   3  -6 77712.6 4024.83   4
  -1   3  -6 80537.6 4066.37   9
  -1   3  -5 97821.9 4504.46   9
  -1   3  -5 100459. 4434.18   4
  -1   3  -4 65155.5 3491.34   9
  -1   3  -4 68208.0 3308.32   4
  -1   3  -3 24338.4 1968.91   9
  -1   3  -3 23220.1 1713.81   4
  -1   3  -3 24570.1 1573.57   3
  -1   3  -2 806.542 533.521   9
  -1   3  -2-133.818 200.399   3
  -1   3  -2 265.488 317.298   4
  -1   3  -1 21698.3 1389.25   4
  -1   3  -1 22049.4 1551.74   3
  -1   3  -1 19497.6 1756.41   9
  -1   3   0 86047.7 4002.76   9
  -1   3   0 97204.5 3825.61   3
  -1   3   1 141439. 5137.66   3
  -1   3   2 118711. 4682.89   3
  -1   3   3 73714.3 2520.54   8
  -1   3   3 78398.5 3696.61   3
  -1   3   4 147536. 5864.42   3
  -1   3   4 152241. 4352.90   8
  -1   3   5 110.313 211.097   8
  -1   3   5 1262.20 822.224   3
  -1   3   6 10087.9 653.387   4
  -1   3   6 11387.6 1025.69   8
  -1   3   6 12595.1 1673.84   3
  -1   3   7 65983.8 2456.45   4
  -1   3   7 83614.3 4462.41   3
  -1   3   8 103615. 5399.97   3
  -1   3   9 59445.5 4175.67   3
  -1   3  10 19954.3 2459.81   3
  -1   3  11 6280.66 1540.15   3
  -1   3  12 2234.41 1016.34   3
  -1   3  13 3879.01 1455.28   3
  -1   3  14 2848.51 1167.17   1
  -1   3  14 4784.51 1550.02   3
  -1   3  15 4759.63 1338.54   1
  -1   3  15 7435.25 1850.93   3
  -1   3  16 4055.77 1348.68   1
  -1   3  16 4885.97 1435.43   3
  -1   3  17 1573.97 981.852   3
  -1   3  17 1461.86 834.301   1
  -1   3  18 1222.13 1045.66   3
  -1   3  18 788.322 952.418   1
  -1   3  19 2502.91 1333.63   1
  -1   3  19 395.904 833.887   3
  -1   3  20-580.844 771.144   2
  -1   3  20 547.982 772.879   3
  -1   3  20-84.9463 970.723   1
  -1   3  21 716.879 1010.08   1
  -1   3  21-86.4441 648.885   3
  -1   3  22 524.309 1062.21   1
  -1   3  22-118.811 860.547   3
  -1   4 -20 112.801 781.912   5
  -1   4 -19-455.891 748.799   5
  -1   4 -18-83.5321 730.262   5
  -1   4 -17 176.601 865.604   5
  -1   4 -16 4873.87 1821.17   5
  -1   4 -15 3271.81 1352.63   5
  -1   4 -14 2343.78 1193.80   5
  -1   4 -13 442.962 914.401   5
  -1   4 -12 848.804 1059.86   5
  -1   4 -11 1169.64 957.575   5
  -1   4 -11 1247.10 703.192   4
  -1   4 -10 13229.9 1894.38   4
  -1   4 -10 13988.4 1879.48   9
  -1   4 -10 15315.4 2122.19   5
  -1   4  -9 22903.7 2398.12   4
  -1   4  -9 23909.8 2462.01   9
  -1   4  -8 38441.4 3027.72   4
  -1   4  -8 36857.9 2952.53   9
  -1   4  -7 28477.9 2523.29   9
  -1   4  -7 30883.7 2584.23   4
  -1   4  -6 7769.33 1267.34   9
  -1   4  -6 7027.73 1181.83   4
  -1   4  -6 8306.05 924.683   3
  -1   4  -5 2517.07 851.740   9
  -1   4  -5 2498.18 502.457   3
  -1   4  -5 2610.05 518.539   4
  -1   4  -4 42671.6 3029.65   9
  -1   4  -4 44490.7 2336.03   3
  -1   4  -3 94396.9 4598.13   9
  -1   4  -3 90763.7 3754.78   3
  -1   4  -2 148729. 6194.64   9
  -1   4  -2 155063. 5392.68   3
  -1   4  -2 153121. 5247.03   5
  -1   4  -1 90420.9 4501.92   9
  -1   4  -1 97568.2 3526.96   5
  -1   4  -1 91306.5 3930.60   3
  -1   4   0 36979.4 2662.59   9
  -1   4   0 38777.9 2372.58   3
  -1   4   0 36119.9 1741.33   5
  -1   4   1 1165.94 246.464   5
  -1   4   1 1873.27 577.941   3
  -1   4   2 11759.3 1410.98   3
  -1   4   3 44017.2 2123.52   8
  -1   4   3 47175.8 2942.37   3
  -1   4   4 79284.1 3041.35   8
  -1   4   4 82799.0 4333.73   3
  -1   4   5 86137.4 3295.22   8
  -1   4   5 100521. 4885.74   3
  -1   4   6 24629.1 1610.26   8
  -1   4   6 24394.3 2375.49   3
  -1   4   7 13035.1 1227.70   8
  -1   4   7 14714.1 1891.74   3
  -1   4   8 3609.33 1101.15   3
  -1   4   8 2470.31 584.057   8
  -1   4   9 487.686 403.426   8
  -1   4   9 136.164 814.627   3
  -1   4  10 9020.75 1889.04   3
  -1   4  11 21127.6 2653.58   3
  -1   4  12 15555.6 2577.09   3
  -1   4  13 8675.97 1828.61   3
  -1   4  14 2191.95 1106.70   3
  -1   4  15 2534.63 1217.95   3
  -1   4  16 2275.19 1092.57   1
  -1   4  16 3210.50 1366.09   3
  -1   4  17 2696.08 1426.20   3
  -1   4  17 1310.04 1143.56   1
  -1   4  18 1606.15 1198.83   3
  -1   4  18-994.397 922.980   1
  -1   4  19 355.295 844.299   1
  -1   4  19 3050.47 1550.14   3
  -1   4  20 1347.10 1138.95   1
  -1   4  20 947.258 1211.97   3
  -1   4  21 745.095 906.617   3
  -1   4  21 1236.75 1119.76   1
  -1   4  22 1128.10 915.813   3
  -1   4  22 855.821 1306.69   1
  -1   4  23 73.1828 751.607   3
  -1   5 -19 606.091 916.704   5
  -1   5 -18 1623.04 969.042   5
  -1   5 -17 1062.34 921.398   5
  -1   5 -16 1712.48 1324.83   5
  -1   5 -15 1718.00 1148.95   5
  -1   5 -14 2657.32 988.704   5
  -1   5 -13 8211.59 1830.63   5
  -1   5 -12 7950.49 1759.34   5
  -1   5 -11 9486.07 1860.93   5
  -1   5 -11 7634.77 1521.70   9
  -1   5 -10 3369.94 1213.79   5
  -1   5 -10 1328.45 735.746   9
  -1   5  -9 6235.57 1394.21   5
  -1   5  -9 3363.69 628.547   3
  -1   5  -9 3715.71 1116.02   9
  -1   5  -8 11089.0 1709.03   5
  -1   5  -8 9667.89 1614.23   9
  -1   5  -8 8020.06 918.638   3
  -1   5  -7 25559.7 2468.61   5
  -1   5  -7 21188.0 2309.06   9
  -1   5  -7 20847.0 1534.62   3
  -1   5  -6 32657.9 2861.25   9
  -1   5  -6 29704.3 1903.62   3
  -1   5  -6 31530.0 2608.79   5
  -1   5  -5 29231.9 1951.99   3
  -1   5  -5 30394.9 2745.03   9
  -1   5  -5 33826.5 2537.72   5
  -1   5  -4 23192.2 1786.07   3
  -1   5  -4 24756.6 2487.12   9
  -1   5  -4 26703.8 2152.72   5
  -1   5  -3 11053.2 1684.20   9
  -1   5  -3 12747.4 1356.72   5
  -1   5  -3 11299.6 1268.78   3
  -1   5  -2 594.094 455.390   9
  -1   5  -2 273.339 332.971   3
  -1   5  -2 351.739 249.295   5
  -1   5  -1 18175.6 1382.83   5
  -1   5  -1 18810.2 2084.59   9
  -1   5  -1 19853.9 1764.66   3
  -1   5   0 50711.8 3578.37   9
  -1   5   0 54810.8 3153.79   3
  -1   5   0 56800.8 2431.82   5
  -1   5   1 81123.7 4001.88   3
  -1   5   1 74582.6 2675.71   5
  -1   5   1 77309.0 4411.91   9
  -1   5   2 81731.5 4009.42   3
  -1   5   2 57379.0 1869.53   5
  -1   5   3 51298.2 3339.25   3
  -1   5   4 9039.41 1061.06   8
  -1   5   4 9413.44 1471.11   3
  -1   5   5 3925.26 694.096   8
  -1   5   5 4838.14 1175.67   3
  -1   5   6 6182.43 903.033   8
  -1   5   6 6980.11 1388.94   3
  -1   5   7 43751.1 3664.88   3
  -1   5   7 35652.4 2251.80   8
  -1   5   8 33401.6 2250.80   8
  -1   5   8 33122.3 3202.29   3
  -1   5   9 25534.6 2926.53   3
  -1   5   9 22225.2 1896.43   8
  -1   5  10 7519.63 1174.73   8
  -1   5  10 9058.76 1853.41   3
  -1   5  11 528.784 514.072   8
  -1   5  11-17.2222 901.031   3
  -1   5  12 667.858 586.146   8
  -1   5  12 626.724 711.762   3
  -1   5  13 2374.17 878.059   8
  -1   5  13 381.048 782.495   3
  -1   5  14 4089.88 1082.74   8
  -1   5  14 3965.17 1565.60   3
  -1   5  15 2038.56 921.699   8
  -1   5  15 5313.97 1769.75   3
  -1   5  16 3901.08 1789.98   3
  -1   5  17 489.417 764.660   1
  -1   5  17 2845.07 1512.71   3
  -1   5  18 889.833 844.764   1
  -1   5  18 1894.34 1294.48   3
  -1   5  19 1932.13 1328.27   1
  -1   5  19-614.841 693.305   3
  -1   5  20-1070.07 1000.94   1
  -1   5  20-174.685 737.416   3
  -1   5  21 238.876 746.448   1
  -1   5  21 941.454 890.431   3
  -1   5  22-75.0240 751.018   3
  -1   5  22 1044.50 1207.43   1
  -1   5  23 2568.12 1469.10   3
  -1   6 -18-1543.29 1056.27   5
  -1   6 -17 1151.37 1058.89   5
  -1   6 -16 3618.56 1535.68   5
  -1   6 -15-268.607 760.357   5
  -1   6 -14-681.218 783.503   5
  -1   6 -13 7.61115 546.038   5
  -1   6 -12 1562.07 1087.22   5
  -1   6 -12 1138.61 831.668   9
  -1   6 -11 3402.02 1239.48   5
  -1   6 -11 1825.96 878.307   9
  -1   6 -10 7438.33 1513.99   5
  -1   6 -10 8078.73 1592.78   9
  -1   6  -9 9606.15 1732.77   5
  -1   6  -9 6665.26 1424.09   9
  -1   6  -8 9952.74 1800.95   9
  -1   6  -8 12226.5 1857.89   5
  -1   6  -7 6875.41 1358.52   5
  -1   6  -7 7050.90 1490.05   9
  -1   6  -7 6101.94 865.992   3
  -1   6  -6 837.945 680.587   5
  -1   6  -6 786.868 955.679   9
  -1   6  -6 398.666 257.769   3
  -1   6  -5 2870.98 616.692   3
  -1   6  -5 3332.07 968.928   5
  -1   6  -5 1593.06 810.886   9
  -1   6  -4 15571.4 2082.50   9
  -1   6  -4 13537.3 1411.12   3
  -1   6  -4 16029.7 1732.77   5
  -1   6  -3 29702.5 2866.46   9
  -1   6  -3 29870.8 2216.36   3
  -1   6  -3 34523.8 2426.84   5
  -1   6  -2 46012.9 3575.55   9
  -1   6  -2 44850.2 2819.72   3
  -1   6  -2 45746.8 2656.37   5
  -1   6  -1 35678.4 3176.20   9
  -1   6  -1 37642.5 2647.40   3
  -1   6  -1 38228.9 2268.79   5
  -1   6   0 26826.1 2799.10   9
  -1   6   0 27985.8 2329.43   3
  -1   6   0 27685.9 1758.78   5
  -1   6   1 2973.71 986.815   9
  -1   6   1 2861.18 481.319   5
  -1   6   1 3398.79 869.069   3
  -1   6   2 5190.27 479.262   5
  -1   6   2 5681.47 1136.41   3
  -1   6   3 43333.3 3259.46   3
  -1   6   4 59991.7 4042.73   3
  -1   6   5 37151.6 2433.47   8
  -1   6   5 44019.1 3647.81   3
  -1   6   6 19450.7 1755.95   8
  -1   6   6 19498.6 2515.79   3
  -1   6   7 8018.25 1137.81   8
  -1   6   7 11400.8 1986.13   3
  -1   6   8-227.046 421.650   8
  -1   6   8 258.533 688.759   3
  -1   6   9 2170.87 656.441   8
  -1   6   9 4366.64 1344.46   3
  -1   6  10 6547.96 1139.41   8
  -1   6  10 7666.35 1782.62   3
  -1   6  11 8755.26 1362.94   8
  -1   6  11 7758.74 1813.48   3
  -1   6  12 8931.83 1449.36   8
  -1   6  12 11944.6 2256.82   3
  -1   6  13 5681.11 1211.69   8
  -1   6  13 3003.39 1386.45   3
  -1   6  14 2840.36 1566.62   3
  -1   6  15 1724.44 1431.05   3
  -1   6  16 2056.39 1289.60   3
  -1   6  17 2839.78 1705.64   3
  -1   6  18 1918.91 1267.31   1
  -1   6  18 730.274 1069.99   3
  -1   6  19-652.153 694.207   1
  -1   6  19 2521.62 1499.22   3
  -1   6  20-448.910 626.927   1
  -1   6  20 3586.27 1892.66   3
  -1   6  21 2109.17 1450.40   3
  -1   6  21-3388.03 1572.85   1
  -1   6  22 232.528 799.980   3
  -1   7 -17 117.089 796.269   5
  -1   7 -16-21.6697 643.473   5
  -1   7 -15 966.034 912.218   5
  -1   7 -14 2359.09 1237.60   5
  -1   7 -13 2493.72 1236.41   5
  -1   7 -13 1215.78 811.506   9
  -1   7 -12 2636.07 1028.66   9
  -1   7 -12 2521.55 1050.08   5
  -1   7 -11 462.422 712.814   5
  -1   7 -11 2868.83 1077.05   9
  -1   7 -10 872.765 773.924   5
  -1   7 -10 406.137 669.730   9
  -1   7  -9 1066.52 623.574   5
  -1   7  -9 599.029 849.296   9
  -1   7  -8 1169.70 467.265   5
  -1   7  -8 1840.88 839.436   9
  -1   7  -7 12219.6 1764.18   5
  -1   7  -7 9647.04 1819.50   9
  -1   7  -6 17235.9 2443.63   9
  -1   7  -6 17022.8 2038.57   5
  -1   7  -5 21465.6 2690.30   9
  -1   7  -5 18426.2 1703.91   3
  -1   7  -5 22747.7 2213.31   5
  -1   7  -4 13660.4 2055.87   9
  -1   7  -4 10939.8 1367.96   3
  -1   7  -4 12516.9 1525.71   5
  -1   7  -3 1401.62 812.382   9
  -1   7  -3 891.640 546.231   3
  -1   7  -3 1219.73 604.812   5
  -1   7  -2 5133.18 1272.23   9
  -1   7  -2 6750.69 1099.04   5
  -1   7  -2 5623.32 1008.84   3
  -1   7  -1 20025.6 2540.03   9
  -1   7  -1 20671.0 2093.02   3
  -1   7  -1 20253.2 1724.44   5
  -1   7   0 26711.5 2999.96   9
  -1   7   0 30674.1 2640.57   3
  -1   7   0 27134.4 1857.79   5
  -1   7   1 18270.0 2457.38   9
  -1   7   1 24433.4 2421.62   3
  -1   7   1 19986.6 1371.66   5
  -1   7   2 6397.70 1543.92   9
  -1   7   2 10560.4 1585.28   3
  -1   7   3 4001.99 1075.27   3
  -1   7   4 679.385 621.817   3
  -1   7   5-514.769 745.740   3
  -1   7   6 3857.18 1285.32   3
  -1   7   6 1968.31 565.649   8
  -1   7   7 13864.7 1596.81   8
  -1   7   7 16890.7 2435.52   3
  -1   7   8 15188.2 1714.05   8
  -1   7   8 20090.6 2759.57   3
  -1   7   9 10308.5 1407.49   8
  -1   7   9 15957.1 2529.12   3
  -1   7  10 3367.54 881.207   8
  -1   7  10 3726.21 1495.88   3
  -1   7  11 1256.28 1306.76   3
  -1   7  12 2101.25 1168.14   3
  -1   7  13 809.665 1047.93   3
  -1   7  14 3347.55 1543.88   3
  -1   7  15 4176.01 1797.90   3
  -1   7  16 4269.30 1771.65   3
  -1   7  17 498.185 880.954   3
  -1   7  18 1758.53 1461.56   3
  -1   7  19 1.14172 668.630   1
  -1   7  19 683.788 1275.57   3
  -1   7  20 595.862 910.070   1
  -1   7  20 690.316 1372.43   3
  -1   8 -16-509.244 511.062   5
  -1   8 -15-823.503 826.964   5
  -1   8 -14-137.015 663.061   5
  -1   8 -13-878.910 738.887   5
  -1   8 -13 423.925 601.945   9
  -1   8 -12 76.8079 428.180   5
  -1   8 -12-196.319 572.271   9
  -1   8 -11 317.154 376.714   5
  -1   8 -11 854.717 932.722   9
  -1   8 -10 3689.24 1207.55   5
  -1   8 -10 3448.87 1256.14   9
  -1   8  -9 4756.62 1460.64   9
  -1   8  -9 3267.60 1131.30   5
  -1   8  -8 4285.31 1103.25   5
  -1   8  -8 3969.59 1252.15   9
  -1   8  -7 635.973 614.645   5
  -1   8  -7 16.6165 670.081   9
  -1   8  -6 623.129 724.973   5
  -1   8  -6 443.172 532.544   9
  -1   8  -5 3106.05 1235.08   9
  -1   8  -5 2667.68 796.203   5
  -1   8  -4 5182.91 1097.68   5
  -1   8  -4 5281.23 1365.99   9
  -1   8  -3 6518.64 1609.56   9
  -1   8  -3 6522.87 1202.28   3
  -1   8  -3 7708.87 1264.28   5
  -1   8  -2 9583.95 1975.93   9
  -1   8  -2 10430.3 1390.46   5
  -1   8  -2 10200.7 1547.12   3
  -1   8  -1 13576.9 1804.27   3
  -1   8  -1 12270.1 2222.58   9
  -1   8   0 7679.49 1686.22   9
  -1   8   0 10254.9 1632.75   3
  -1   8   1 1012.34 900.449   9
  -1   8   1 370.825 413.750   3
  -1   8   2 3372.84 1166.89   9
  -1   8   2 3449.73 1183.67   3
  -1   8   3 20104.3 2454.65   3
  -1   8   3 14879.7 2381.07   9
  -1   8   4 27496.1 3062.13   3
  -1   8   5 20485.4 2692.45   3
  -1   8   6 7151.71 1665.81   3
  -1   8   7 434.192 662.670   8
  -1   8   7 930.154 1065.45   3
  -1   8   8 297.565 615.399   3
  -1   8   9 2666.78 1191.82   3
  -1   8  10 3038.51 1463.55   3
  -1   8  11 3713.42 1431.48   3
  -1   8  12 2911.00 1637.30   3
  -1   8  13 2192.65 1306.61   3
  -1   8  14 1611.09 1128.55   3
  -1   8  15 2737.22 1428.25   3
  -1   8  16-593.252 898.993   3
  -1   8  17 1518.07 1245.42   3
  -1   8  18 2526.07 1553.19   3
  -1   8  19 2188.66 1488.49   3
  -1   9 -15-267.986 449.217   5
  -1   9 -14 1919.99 1181.24   5
  -1   9 -13 1487.70 940.172   5
  -1   9 -13 1071.79 824.128   9
  -1   9 -12 820.102 854.811   9
  -1   9 -12 472.469 930.552   5
  -1   9 -11-116.904 486.000   5
  -1   9 -11 1368.50 921.799   9
  -1   9 -10 622.824 670.935   5
  -1   9 -10 593.341 736.181   9
  -1   9  -9 151.868 673.229   5
  -1   9  -9 713.408 880.682   9
  -1   9  -8 202.551 581.860   9
  -1   9  -8 1411.68 879.266   5
  -1   9  -7 2431.94 1069.57   9
  -1   9  -7 3550.10 1184.42   5
  -1   9  -6 2682.96 1009.34   9
  -1   9  -5 6424.88 1724.53   9
  -1   9  -4 1999.36 1060.88   9
  -1   9  -3 929.692 822.281   9
  -1   9  -2 749.411 769.365   9
  -1   9  -1 4658.02 1510.37   9
  -1   9  -1 5442.22 1282.95   3
  -1   9   0 8286.49 1936.46   9
  -1   9   0 9641.34 1668.10   3
  -1   9   1 6270.83 1417.72   3
  -1   9   1 5576.15 1716.74   9
  -1   9   2 5305.02 1573.54   9
  -1   9   2 4644.07 1335.70   3
  -1   9   3 2363.33 1041.29   9
  -1   9   3 3173.14 1173.09   3
  -1   9   4-1033.60 870.210   9
  -1   9   4-472.471 635.737   3
  -1   9   5 587.361 529.676   3
  -1   9   6 4127.38 1342.79   3
  -1   9   7 4114.68 1375.32   3
  -1   9   8 4249.49 1474.39   3
  -1   9   9 2525.61 1301.24   3
  -1   9  10 636.306 867.444   3
  -1   9  11-1209.36 894.936   3
  -1   9  12 1333.51 1262.16   3
  -1   9  13-66.2826 874.746   3
  -1   9  14 3431.94 1741.10   3
  -1   9  15 2662.45 1509.66   3
  -1   9  16 1543.32 1206.49   3
  -1   9  17-1157.67 932.878   3
  -1  10 -12-1050.00 928.935   9
  -1  10 -11 998.328 992.007   9
  -1  10 -10 698.340 959.439   9
  -1  10  -9 799.522 793.231   9
  -1  10  -8 1449.88 904.397   9
  -1  10  -7 2651.07 1395.55   9
  -1  10  -6 378.725 629.092   9
  -1  10  -5 1744.40 1144.84   9
  -1  10  -4 2139.45 934.328   9
  -1  10  -3 2833.17 1318.50   9
  -1  10  -2 3902.36 1407.17   9
  -1  10  -1 2982.84 1218.52   9
  -1  10   0 322.234 1035.90   9
  -1  10   1 238.592 767.740   9
  -1  10   1 450.883 640.122   3
  -1  10   2 505.396 610.784   9
  -1  10   2 1781.03 1005.12   3
  -1  10   3 2711.62 1086.04   3
  -1  10   3 3513.47 1506.05   9
  -1  10   4 4618.50 1505.57   9
  -1  10   4 6912.89 1715.90   3
  -1  10   5 2564.05 1402.94   9
  -1  10   5 4374.69 1453.01   3
  -1  10   6 2502.16 1329.68   9
  -1  10   6 1924.28 1074.02   3
  -1  10   7 992.326 1047.46   3
  -1  10   8 1329.58 843.574   3
  -1  10   9 303.006 800.772   3
  -1  10  10 3512.49 1606.40   3
  -1  10  11 1783.37 1316.78   3
  -1  10  12 3638.06 1643.12   3
  -1  10  13 2205.94 1387.87   3
  -1  10  14 307.977 1070.71   3
  -1  10  15 838.631 1213.01   3
  -1  11  -9 17.8578 876.763   9
  -1  11  -8-974.068 1059.93   9
  -1  11  -7 612.300 947.995   9
  -1  11  -6 744.092 965.372   9
  -1  11  -5 967.277 1161.04   9
  -1  11  -4 1279.13 1003.91   9
  -1  11  -3-549.732 684.587   9
  -1  11  -2 849.772 1130.29   9
  -1  11  -1 2189.40 1125.68   9
  -1  11   0 2603.40 1420.37   9
  -1  11   1 1092.16 1248.28   9
  -1  11   2 2479.33 1378.87   9
  -1  11   3 599.076 936.129   9
  -1  11   4 1149.86 948.664   9
  -1  11   4 771.131 779.150   3
  -1  11   5 1455.18 1031.53   9
  -1  11   5-509.606 867.924   3
  -1  11   6-48.4895 599.024   9
  -1  11   6 1936.15 1043.83   3
  -1  11   7 2155.65 1481.15   9
  -1  11   7 2044.05 1117.43   3
  -1  11   8 437.656 764.076   3
  -1  11   9-778.521 788.127   3
  -1  11  10 2671.01 1398.93   3
  -1  11  11 2416.59 1543.28   3
  -1  11  12 638.656 1067.35   3
  -1  11  13 281.127 874.533   3
  -1  12  -4 980.977 1115.02   9
  -1  12  -3 1606.22 1171.95   9
  -1  12  -2 1048.32 1293.84   9
  -1  12  -1 56.9964 778.810   9
  -1  12   0 1375.83 1259.62   9
  -1  12   1 692.685 1092.04   9
  -1  12   2-402.931 871.092   9
  -1  12   3-213.975 821.077   9
  -1  12   4-40.4026 774.627   9
  -1  12   5 2861.37 1536.77   9
  -1  12   6-596.899 1108.49   9
  -1  12   7 2122.63 1453.49   9
  -1  12   7-988.748 811.045   3
  -1  12   8 2910.37 1522.41   9
  -1  12   8 1088.12 960.379   3
  -1  12   9 3761.64 1661.22   3
  -1  12  10 189.703 697.979   3
   0 -12 -12 384.419 797.108   7
   0 -12 -11-143.842 701.252   7
   0 -12 -10 1375.58 1076.11   7
   0 -12  -9 798.078 1119.48   7
   0 -12  -8 2.39396 637.081   7
   0 -12  -7 533.807 740.656   7
   0 -12  -6 2869.61 1447.66   7
   0 -12  -5 501.484 882.946   7
   0 -12  -4 2848.86 1378.44   7
   0 -12  -3 3481.01 1501.16   7
   0 -12  -2 1547.77 1128.25   7
   0 -12  -1 546.503 1205.57   7
   0 -12   0 466.176 1233.15   7
   0 -12   1 2226.22 1522.40   7
   0 -12   2-2025.54 1557.61   2
   0 -12   2 3404.08 1907.87   7
   0 -12   3 291.696 854.717   2
   0 -12   3 1383.29 1244.52   7
   0 -12   4 1968.33 1281.44   2
   0 -11 -15 198.644 603.450   7
   0 -11 -14-1091.83 925.699   7
   0 -11 -13 518.645 759.726   7
   0 -11 -12 265.503 777.871   7
   0 -11 -11 3002.50 1280.35   7
   0 -11 -10 2531.42 1273.55   7
   0 -11  -9 2754.59 1257.78   7
   0 -11  -8-465.243 528.142   7
   0 -11  -7 2588.50 1391.39   7
   0 -11  -6 1043.13 930.307   7
   0 -11  -5 157.262 1213.87   7
   0 -11  -4 1095.61 763.113   7
   0 -11  -3 5115.45 1925.71   7
   0 -11  -2 4365.68 1686.60   7
   0 -11  -1 281.399 969.862   7
   0 -11   0 1901.99 1473.72   7
   0 -11   1 1290.13 1327.52   2
   0 -11   1 894.919 1298.82   7
   0 -11   2 2205.37 1472.25   2
   0 -11   3 801.431 696.842   2
   0 -11   4 129.773 995.389   2
   0 -11   5 1688.23 1421.03   2
   0 -11   6 2530.61 1663.85   2
   0 -11   7 65.4059 1204.56   2
   0 -11   8-753.582 1181.98   2
   0 -11   9 1265.54 1434.77   2
   0 -10 -16 270.753 595.968   7
   0 -10 -15 850.695 695.265   7
   0 -10 -14 518.523 681.255   7
   0 -10 -13 800.468 567.984   7
   0 -10 -12 2822.90 1208.10   7
   0 -10 -11 1165.25 1024.12   7
   0 -10 -10 680.057 575.613   7
   0 -10  -9 1675.76 1078.81   7
   0 -10  -8 1091.65 721.991   7
   0 -10  -7 4105.30 1457.96   7
   0 -10  -6 4912.42 1583.79   7
   0 -10  -5 6384.22 1761.33   7
   0 -10  -4 4142.50 1513.05   7
   0 -10  -3 2699.68 1438.64   7
   0 -10  -2 677.460 1017.09   7
   0 -10  -1 3854.65 1592.80   7
   0 -10   0 7767.14 2011.42   2
   0 -10   0 8999.71 2335.38   7
   0 -10   1 5587.23 1697.93   2
   0 -10   2 6925.95 1775.39   2
   0 -10   3 2062.38 1260.27   2
   0 -10   4-262.184 859.357   2
   0 -10   5 1845.85 1280.16   2
   0 -10   6 1020.08 1168.15   2
   0 -10   7 3006.37 1646.28   2
   0 -10   8 1336.31 1149.65   2
   0 -10   9 265.303 839.350   2
   0 -10  10-1099.64 1079.82   2
   0 -10  11 465.781 1058.90   2
   0 -10  12 938.197 1090.76   2
   0  -9 -17 74.4926 448.861   7
   0  -9 -16 1286.79 852.214   7
   0  -9 -15 678.766 609.489   7
   0  -9 -14 601.089 564.012   7
   0  -9 -13 969.672 717.898   7
   0  -9 -12 903.425 802.848   7
   0  -9 -11 2714.61 1133.22   7
   0  -9 -10 5174.56 1517.75   7
   0  -9  -9 5888.78 1612.06   7
   0  -9  -8 4270.41 1388.21   7
   0  -9  -7 1496.49 859.030   7
   0  -9  -6 252.656 708.925   7
   0  -9  -5 3238.43 1399.28   7
   0  -9  -4 5949.04 1591.21   7
   0  -9  -3 13095.1 2394.76   7
   0  -9  -2 13862.2 2482.35   7
   0  -9  -1 10104.1 1990.65   2
   0  -9  -1 8712.17 1989.61   7
   0  -9   0 505.037 926.378   2
   0  -9   1 1795.84 1109.47   2
   0  -9   2 1931.95 1104.63   2
   0  -9   3 6992.38 1949.18   2
   0  -9   4 8580.89 1969.42   2
   0  -9   5 6405.56 1893.59   2
   0  -9   6 5870.42 1972.04   2
   0  -9   7-220.990 721.837   2
   0  -9   8-99.2587 1028.41   2
   0  -9   9 907.954 1470.59   2
   0  -9  10 3338.31 1594.51   2
   0  -9  11 2812.63 1868.36   2
   0  -9  12-447.820 919.697   2
   0  -9  13 137.739 967.215   2
   0  -9  14-4898.80 1853.70   2
   0  -9  15 3350.55 1676.71   2
   0  -8 -19-319.911 575.419  10
   0  -8 -18 2519.49 1589.12  10
   0  -8 -17-470.158 452.065   7
   0  -8 -17-332.273 693.296  10
   0  -8 -16 596.183 730.081   7
   0  -8 -16 664.159 584.916  10
   0  -8 -15 682.883 623.098  10
   0  -8 -15-561.692 508.233   7
   0  -8 -14 1913.93 1122.29  10
   0  -8 -14 1767.49 948.833   7
   0  -8 -13 5304.08 1711.16  10
   0  -8 -13 5180.61 1393.59   7
   0  -8 -12 4519.52 1339.05   7
   0  -8 -12 7058.11 1902.96  10
   0  -8 -11 3610.84 1147.00   7
   0  -8 -10 857.192 701.965   7
   0  -8  -9 1742.68 828.651   7
   0  -8  -8 8085.76 1621.89   7
   0  -8  -7 16663.6 2357.74   7
   0  -8  -6 10139.2 1782.89   7
   0  -8  -5 10233.9 1893.64   7
   0  -8  -5 8792.06 1197.11   4
   0  -8  -4 5713.53 1655.77   7
   0  -8  -3 760.366 887.879   7
   0  -8  -2 525.228 681.196   2
   0  -8  -2 2360.50 1126.39   7
   0  -8  -1 8879.12 1709.72   2
   0  -8   0 16208.3 2319.69   2
   0  -8   1 23494.4 2896.27   2
   0  -8   2 26365.9 3031.88   2
   0  -8   3 6190.65 1623.91   2
   0  -8   4 2219.73 1167.71   2
   0  -8   4 115.881 322.100   6
   0  -8   5 2011.35 1126.68   2
   0  -8   5 1571.73 644.297   6
   0  -8   6 3655.78 1442.81   2
   0  -8   6 3726.24 959.469   6
   0  -8   7 4997.51 1522.72   2
   0  -8   7 5474.70 1239.25   6
   0  -8   8 2473.15 1225.44   2
   0  -8   8 5184.13 1274.18   6
   0  -8   9 5567.06 1873.67   2
   0  -8   9 4886.32 1408.04   6
   0  -8  10 2307.18 1582.48   2
   0  -8  10 3342.86 1211.24   6
   0  -8  11 1052.49 966.472   2
   0  -8  12-1068.42 1102.60   2
   0  -8  13 241.021 969.340   2
   0  -8  14 820.934 1275.22   2
   0  -8  15-502.079 983.300   2
   0  -8  16 561.621 857.782   2
   0  -8  17 45.8965 929.416   2
   0  -7 -22-1658.61 1064.68  10
   0  -7 -21-1145.11 932.346  10
   0  -7 -20 706.256 1018.72  10
   0  -7 -19 1059.43 1035.40  10
   0  -7 -18 589.823 683.162  10
   0  -7 -18 481.487 651.867   7
   0  -7 -17 909.797 668.485   7
   0  -7 -17 1270.46 1075.36  10
   0  -7 -16 1425.11 806.480   7
   0  -7 -16 1594.57 1094.37  10
   0  -7 -15 1023.41 913.526  10
   0  -7 -15 2265.40 942.683   7
   0  -7 -14 454.392 469.803   7
   0  -7 -14 448.179 723.945  10
   0  -7 -13 827.180 891.501  10
   0  -7 -13 308.985 427.956   7
   0  -7 -12 1565.08 805.013   7
   0  -7 -12 1570.29 1140.25  10
   0  -7 -11 4003.42 1307.02  10
   0  -7 -11 3399.65 1032.59   7
   0  -7 -10 6802.74 1502.11   7
   0  -7 -10 7845.41 1807.54  10
   0  -7  -9 12186.5 2092.65  10
   0  -7  -9 12987.0 1898.27   7
   0  -7  -8 15406.7 1404.67   4
   0  -7  -8 16082.8 2179.91   7
   0  -7  -8 18684.6 2571.04  10
   0  -7  -7 9558.18 1089.16   4
   0  -7  -7 12336.8 1856.80   7
   0  -7  -6 4354.28 1183.90   7
   0  -7  -6 2863.86 652.915   4
   0  -7  -5 4674.76 1219.49   7
   0  -7  -5 3102.16 656.653   4
   0  -7  -4 44430.0 3590.35   7
   0  -7  -3 66929.2 4480.42   7
   0  -7  -2 54976.3 3794.44   2
   0  -7  -2 43870.1 1765.98   6
   0  -7  -1 19716.8 2358.75   2
   0  -7  -1 19367.0 1196.48   6
   0  -7   0 3397.88 1026.63   2
   0  -7   0 1609.23 382.800   6
   0  -7   1 1661.36 1137.79   2
   0  -7   1 186.095 204.583   6
   0  -7   2 14371.1 2167.20   2
   0  -7   2 13216.0 1287.94   6
   0  -7   3 19023.6 2527.19   2
   0  -7   3 19450.2 1711.01   6
   0  -7   4 22331.4 2749.89   2
   0  -7   4 21657.2 1951.46   6
   0  -7   5 23636.7 2955.16   2
   0  -7   5 23233.7 2177.27   6
   0  -7   6 11684.5 1671.58   6
   0  -7   6 15525.5 2401.22   2
   0  -7   7 623.191 714.773   2
   0  -7   8 1826.16 838.711   2
   0  -7   9 1661.20 1355.88   2
   0  -7  10 5025.33 1694.51   2
   0  -7  11 4253.39 1791.61   2
   0  -7  12 2419.92 1501.21   2
   0  -7  13 1299.80 1414.10   2
   0  -7  14-451.322 916.424   2
   0  -7  15 1995.29 1324.30   1
   0  -7  15 360.305 812.569   2
   0  -7  16 75.1344 819.726   1
   0  -7  16 560.366 1050.83   2
   0  -7  17-231.582 866.245   1
   0  -7  17 259.529 931.597   2
   0  -7  18-821.144 874.957   2
   0  -6 -22-255.199 818.782  10
   0  -6 -21 715.352 826.868  10
   0  -6 -20 643.640 856.928  10
   0  -6 -19 20.5575 679.588  10
   0  -6 -18-441.999 393.863   7
   0  -6 -18-652.279 767.258  10
   0  -6 -17 264.654 627.121  10
   0  -6 -17 45.7457 344.334   7
   0  -6 -16 623.140 635.594   7
   0  -6 -16 1349.32 928.603  10
   0  -6 -15 1343.27 748.576   7
   0  -6 -15 3406.26 1430.29  10
   0  -6 -14 3397.60 1442.72  10
   0  -6 -14 5477.14 1217.76   7
   0  -6 -13 6885.58 1322.39   7
   0  -6 -13 6945.57 1702.10  10
   0  -6 -12 6886.85 1058.66   4
   0  -6 -12 10832.4 1610.36   7
   0  -6 -12 10123.1 2000.15  10
   0  -6 -11 5874.25 1250.02   7
   0  -6 -11 4872.94 828.414   4
   0  -6 -11 5243.00 1547.62  10
   0  -6 -10 393.238 423.797   4
   0  -6 -10 953.399 611.992   7
   0  -6  -9 4939.08 829.737   4
   0  -6  -9 5469.73 1156.89   7
   0  -6  -9 5912.22 1451.85  10
   0  -6  -8 20577.3 1589.50   4
   0  -6  -8 23632.3 2737.26  10
   0  -6  -8 20953.9 2290.18   7
   0  -6  -7 41475.7 3584.09  10
   0  -6  -7 35888.4 2132.68   4
   0  -6  -7 39948.9 3072.59   7
   0  -6  -6 30814.3 1896.68   4
   0  -6  -6 29898.0 2628.27   7
   0  -6  -6 22803.5 1317.55   5
   0  -6  -6 32642.6 3043.17  10
   0  -6  -5 41021.3 2261.14   4
   0  -6  -5 40448.7 3089.28   7
   0  -6  -5 45046.0 3530.86  10
   0  -6  -4 4607.21 1092.62   7
   0  -6  -4 3143.79 490.801   5
   0  -6  -3 1717.84 851.268   7
   0  -6  -2 2281.01 710.431   2
   0  -6  -2 3572.06 458.639   6
   0  -6  -1 23509.8 1312.03   6
   0  -6  -1 22741.2 2360.13   2
   0  -6   0 55727.5 3798.69   2
   0  -6   0 62623.9 2537.78   6
   0  -6   1 66481.1 4157.63   2
   0  -6   1 63548.6 2765.36   6
   0  -6   2 35990.3 3142.04   2
   0  -6   2 35102.2 2100.20   6
   0  -6   3 7491.29 1501.35   2
   0  -6   3 7990.70 1118.54   6
   0  -6   4 2052.99 1010.77   2
   0  -6   4 2777.50 832.231   6
   0  -6   5 1745.46 1223.45   2
   0  -6   6 14174.1 2266.62   2
   0  -6   7 20096.9 2599.67   2
   0  -6   8 18008.8 2561.93   2
   0  -6   9 10269.4 2090.17   2
   0  -6  10 1487.75 1121.79   2
   0  -6  10 3135.30 1252.30   1
   0  -6  11-36.4777 794.641   2
   0  -6  11 362.145 1030.70   1
   0  -6  12 2006.69 1004.25   2
   0  -6  12 2236.37 1150.05   1
   0  -6  13 878.979 997.652   2
   0  -6  13 2133.32 1256.81   1
   0  -6  14 469.068 754.709   2
   0  -6  14 1011.76 1237.71   1
   0  -6  15-1539.20 1241.71   2
   0  -6  15 200.111 1007.90   1
   0  -6  16 1405.95 1127.78   2
   0  -6  16 1237.35 1044.28   1
   0  -6  17-2360.98 1303.21   2
   0  -6  17 1655.67 1196.28   1
   0  -6  18-1096.07 1309.00   2
   0  -6  18-1833.30 1376.45   1
   0  -6  19 1778.96 1329.42   2
   0  -6  19 3.00013 856.161   1
   0  -6  20-1978.95 1279.82   2
   0  -5 -21 1376.18 1143.10  10
   0  -5 -20 110.645 665.079  10
   0  -5 -19-264.846 550.062   7
   0  -5 -19 399.434 738.252  10
   0  -5 -18 278.359 481.053   7
   0  -5 -18-237.483 523.707  10
   0  -5 -17 1592.61 799.660   7
   0  -5 -17 947.230 709.770  10
   0  -5 -16 2859.38 930.373   7
   0  -5 -16 4052.70 1342.26  10
   0  -5 -15 3438.88 913.978   4
   0  -5 -15 2616.08 886.287   7
   0  -5 -15 1087.61 561.870  10
   0  -5 -14 1549.11 688.671   4
   0  -5 -14 1640.03 642.049   7
   0  -5 -14 1134.05 871.428  10
   0  -5 -13-825.331 549.688   4
   0  -5 -13 200.478 463.663   7
   0  -5 -13 864.728 748.215  10
   0  -5 -12 4779.54 1032.32   7
   0  -5 -12 3830.06 799.060   4
   0  -5 -12 4917.88 1386.96  10
   0  -5 -11 14479.2 1457.24   4
   0  -5 -11 19826.5 2505.81  10
   0  -5 -11 15848.9 1828.56   7
   0  -5 -10 24608.0 1835.00   4
   0  -5 -10 25510.6 2259.66   7
   0  -5 -10 29577.1 3059.21  10
   0  -5  -9 27573.1 1847.55   4
   0  -5  -9 28920.5 2396.95   7
   0  -5  -8 21595.4 2402.55  10
   0  -5  -8 18829.0 1945.38   7
   0  -5  -8 19033.8 1462.33   4
   0  -5  -7 6359.36 1411.32  10
   0  -5  -7 6281.71 796.704   4
   0  -5  -7 7931.64 1289.40   7
   0  -5  -6 1102.40 237.453   4
   0  -5  -6 1370.00 667.063   7
   0  -5  -6 1708.17 340.827   5
   0  -5  -6 1176.62 687.634  10
   0  -5  -5 29754.9 1754.83   4
   0  -5  -5 30963.5 2456.83   7
   0  -5  -5 25151.8 1383.06   5
   0  -5  -5 31935.8 2814.16  10
   0  -5  -4 61293.1 3549.33   7
   0  -5  -4 59707.8 2658.49   4
   0  -5  -4 62613.5 3824.26  10
   0  -5  -4 52492.5 2135.49   5
   0  -5  -3 68705.4 3738.88   7
   0  -5  -3 61457.3 2387.73   5
   0  -5  -2 85644.2 2811.22   6
   0  -5  -2 100632. 4553.25   2
   0  -5  -1 74543.8 3875.32   2
   0  -5  -1 67352.5 2429.71   6
   0  -5   0 20674.2 2006.11   2
   0  -5   0 18588.2 1182.81   6
   0  -5   1 1663.17 759.411   2
   0  -5   1 327.525 208.769   6
   0  -5   2 41667.0 3034.06   2
   0  -5   2 41012.8 2196.10   6
   0  -5   3 60977.2 3836.29   2
   0  -5   4 134668. 6297.96   2
   0  -5   5 65995.4 4283.91   2
   0  -5   6 17194.4 2205.36   2
   0  -5   7 740.472 832.996   2
   0  -5   7 588.521 820.134   1
   0  -5   8 4423.56 1205.63   2
   0  -5   8 5028.00 1475.82   1
   0  -5   9 5146.34 1403.93   2
   0  -5   9 9082.34 1770.05   1
   0  -5  10 7508.07 1755.55   2
   0  -5  10 11733.6 2071.72   1
   0  -5  11 8362.96 1881.52   2
   0  -5  11 8567.79 1766.26   1
   0  -5  12 7182.22 1895.69   2
   0  -5  12 8706.88 1932.52   1
   0  -5  13 2136.04 1179.07   2
   0  -5  13 4740.45 1774.61   1
   0  -5  14 236.166 708.932   2
   0  -5  14 2073.25 1145.82   1
   0  -5  15-365.398 808.687   2
   0  -5  15 670.499 1204.88   1
   0  -5  16-128.812 661.577   2
   0  -5  16 4477.72 1844.74   1
   0  -5  17 682.098 921.049   2
   0  -5  17 2915.59 1710.41   1
   0  -5  18-751.989 1120.85   2
   0  -5  18 1919.83 1508.04   1
   0  -5  19-1096.85 1407.11   2
   0  -5  19 1637.45 1337.71   1
   0  -5  20 651.111 1057.53   2
   0  -5  20 1775.48 1684.92   1
   0  -4 -20 110.968 754.746  10
   0  -4 -19 688.949 724.451   5
   0  -4 -19 113.111 365.823   7
   0  -4 -19-77.5788 513.909  10
   0  -4 -18 1260.51 953.059   5
   0  -4 -18 148.775 396.868   4
   0  -4 -18 243.939 783.366  10
   0  -4 -18 845.191 600.913   7
   0  -4 -17-165.962 370.403   4
   0  -4 -17 1078.83 802.846   5
   0  -4 -17 349.431 456.846   7
   0  -4 -17-197.173 474.890  10
   0  -4 -16 840.255 554.914   4
   0  -4 -16 533.576 627.566   7
   0  -4 -16 2469.50 1145.97  10
   0  -4 -15 3785.67 995.609   4
   0  -4 -15 2812.68 743.586   7
   0  -4 -15 3530.70 1219.75  10
   0  -4 -14 7292.06 1229.87   4
   0  -4 -14 5265.87 1081.66   7
   0  -4 -14 6600.77 1515.07  10
   0  -4 -13 8630.47 1321.96   7
   0  -4 -13 11400.9 1518.55   4
   0  -4 -13 11567.6 1931.15  10
   0  -4 -12 10446.6 1266.97   4
   0  -4 -12 12467.6 1535.06   7
   0  -4 -12 12225.4 1957.77  10
   0  -4 -11 5589.01 876.369   4
   0  -4 -11 6349.85 1097.46   7
   0  -4 -11 8312.80 1601.13  10
   0  -4 -10 889.229 431.406   4
   0  -4 -10 1068.22 602.227   7
   0  -4 -10 734.229 611.089  10
   0  -4  -9 4765.41 823.761   4
   0  -4  -9 4320.74 860.553   7
   0  -4  -9 5189.03 1295.19  10
   0  -4  -8 33745.6 1990.97   4
   0  -4  -8 38875.5 2525.00   7
   0  -4  -8 40734.9 3074.65  10
   0  -4  -7 82949.6 3915.31   7
   0  -4  -7 75217.7 3125.99   4
   0  -4  -6 101655. 3685.86   4
   0  -4  -6 106542. 4611.73   7
   0  -4  -6 116263. 5247.38  10
   0  -4  -5 88458.6 3229.57   4
   0  -4  -5 89411.4 4069.73   7
   0  -4  -5 83901.2 2862.80   5
   0  -4  -4 7403.47 759.046   4
   0  -4  -4 7369.88 1030.22   7
   0  -4  -4 6857.53 597.280   5
   0  -4  -4 8801.91 1296.88  10
   0  -4  -3 17318.3 1640.43   7
   0  -4  -3 16885.7 1718.54  10
   0  -4  -3 14616.4 920.027   5
   0  -4  -2 78247.3 3591.07   2
   0  -4  -2 73226.9 2350.53   6
   0  -4  -2 67536.7 2482.23   5
   0  -4  -1 169152. 5988.55   2
   0  -4  -1 171701. 4536.92   6
   0  -4   0 160374. 4586.11   6
   0  -4   0 167817. 6030.04   2
   0  -4   1 96507.4 4326.40   2
   0  -4   1 93289.0 3271.10   6
   0  -4   2 39700.8 2760.76   2
   0  -4   3 5482.99 1040.92   2
   0  -4   4 1529.91 722.024   2
   0  -4   5 14636.6 1803.86   2
   0  -4   5 19286.5 2062.33   1
   0  -4   6 14767.9 1975.08   2
   0  -4   6 18514.3 2093.01   1
   0  -4   7 32481.7 2902.37   2
   0  -4   7 32318.0 2795.36   1
   0  -4   8 38030.4 3252.10   2
   0  -4   8 40779.7 3294.78   1
   0  -4   9 27647.5 2838.43   2
   0  -4   9 25295.9 2551.87   1
   0  -4  10 8204.28 1611.95   1
   0  -4  10 7256.44 1565.08   2
   0  -4  11 1392.46 1081.58   1
   0  -4  11 317.976 952.891   2
   0  -4  12 5921.15 1579.45   1
   0  -4  12 2286.33 1031.22   2
   0  -4  13 5405.04 1588.36   2
   0  -4  13 5573.40 1693.98   1
   0  -4  14 4618.45 1536.47   1
   0  -4  14 4215.04 1377.12   2
   0  -4  15 5781.72 1646.98   1
   0  -4  15 4891.16 1527.11   2
   0  -4  16 3093.34 1383.34   1
   0  -4  16 1573.80 1186.21   2
   0  -4  17-146.714 589.480   1
   0  -4  17 1701.37 1137.31   2
   0  -4  18 3961.60 1742.95   1
   0  -4  18-115.415 864.753   2
   0  -4  19 501.045 834.987   1
   0  -4  19 1353.03 1333.85   2
   0  -4  20-84.1006 843.826   1
   0  -4  20-728.721 828.554   2
   0  -4  21 1524.38 1133.44   1
   0  -3 -22 443.274 760.174   5
   0  -3 -21-169.629 572.717   5
   0  -3 -20 892.061 856.753   5
   0  -3 -20-991.431 815.293   4
   0  -3 -20 960.489 847.851  10
   0  -3 -19 132.175 463.680   5
   0  -3 -19 1087.21 818.968   4
   0  -3 -19 855.519 740.996  10
   0  -3 -19 523.480 639.178   7
   0  -3 -18 899.392 772.570   5
   0  -3 -18 923.071 726.205   4
   0  -3 -18 123.159 343.854   7
   0  -3 -18 1035.43 819.224  10
   0  -3 -17 5883.43 1508.84   5
   0  -3 -17 2955.41 998.035   4
   0  -3 -17 3757.11 995.227   7
   0  -3 -17 5073.06 1359.08  10
   0  -3 -16 4250.73 1185.23   4
   0  -3 -16 4086.74 1006.50   7
   0  -3 -16 6188.41 1465.74  10
   0  -3 -15 3206.81 966.848   4
   0  -3 -15 1491.67 662.957   7
   0  -3 -15 3314.08 1080.88  10
   0  -3 -14 1153.44 725.765   4
   0  -3 -14 474.072 526.879   7
   0  -3 -14 279.204 477.078  10
   0  -3 -13 3622.07 943.148   4
   0  -3 -13 3534.06 854.053   7
   0  -3 -13 2100.64 839.383  10
   0  -3 -12 17153.0 1826.07   4
   0  -3 -12 14356.8 1590.35   7
   0  -3 -12 15090.3 2003.17  10
   0  -3 -11 30608.8 2234.20   4
   0  -3 -11 31011.3 2282.12   7
   0  -3 -11 33593.6 2811.94  10
   0  -3 -10 27150.2 1989.43   4
   0  -3 -10 28718.8 2512.37  10
   0  -3 -10 26474.0 2052.27   7
   0  -3  -9 31136.7 1992.57   4
   0  -3  -9 33686.2 2749.89  10
   0  -3  -9 33205.5 2230.35   7
   0  -3  -8 15602.6 1311.70   4
   0  -3  -8 14975.9 1386.52   7
   0  -3  -8 18234.9 1870.12  10
   0  -3  -7 1805.56 463.159   4
   0  -3  -7 1862.99 434.933   7
   0  -3  -7 2105.92 677.091  10
   0  -3  -6 4390.75 620.050   4
   0  -3  -6 5155.59 829.365   7
   0  -3  -6 4626.24 927.436  10
   0  -3  -5 30918.8 1595.53   4
   0  -3  -5 32664.0 2032.04   7
   0  -3  -5 32273.9 2303.05  10
   0  -3  -4 124162. 3821.22   4
   0  -3  -4 131336. 5093.24  10
   0  -3  -4 124022. 4562.37   7
   0  -3  -4 122399. 3592.84   5
   0  -3  -3 261164. 6881.95   4
   0  -3  -3 264401. 8194.41  10
   0  -3  -3 261840. 7780.90   7
   0  -3  -3 256937. 6501.57   5
   0  -3  -2 233013. 6910.91   2
   0  -3  -2 232924. 7031.87   7
   0  -3  -2 228456. 5774.81   6
   0  -3  -2 224057. 5836.02   5
   0  -3  -2 232356. 7256.94  10
   0  -3  -1 60573.6 2775.53   2
   0  -3  -1 57939.5 1862.94   6
   0  -3  -1 56324.7 2041.54   5
   0  -3   0 3871.45 533.461   5
   0  -3   0 4313.01 826.544   2
   0  -3   0 3654.05 408.471   6
   0  -3   1 13208.4 1227.12   2
   0  -3   1 10353.0 865.343   3
   0  -3   2 80550.1 3504.44   2
   0  -3   2 67576.3 2411.61   3
   0  -3   3 200019. 6855.24   2
   0  -3   3 207127. 6894.67   1
   0  -3   4 267434. 8550.66   2
   0  -3   4 266483. 8497.14   1
   0  -3   5 36594.0 2573.34   1
   0  -3   5 33237.0 2434.51   2
   0  -3   6 44954.6 2961.99   2
   0  -3   6 44562.2 2949.33   1
   0  -3   7-252.021 500.075   1
   0  -3   7 1127.35 767.780   2
   0  -3   8 10032.0 1511.22   1
   0  -3   8 9699.16 1393.56   2
   0  -3   9 23329.1 2284.08   2
   0  -3   9 24345.4 2423.20   1
   0  -3  10 22941.3 2448.78   2
   0  -3  10 26644.5 2689.24   1
   0  -3  11 18294.5 2332.44   1
   0  -3  11 15357.8 1979.87   2
   0  -3  12 8051.80 1701.65   1
   0  -3  12 9273.57 1682.26   2
   0  -3  13 884.570 927.786   1
   0  -3  13 1963.72 1021.29   2
   0  -3  14-20.2516 634.002   1
   0  -3  14 241.151 680.562   2
   0  -3  15 2304.84 1288.39   1
   0  -3  15 106.491 584.477   2
   0  -3  16 2094.66 1351.37   1
   0  -3  16 1001.50 836.591   2
   0  -3  17 1336.93 798.005   1
   0  -3  17 1748.41 1006.38   2
   0  -3  18 2336.30 1343.46   1
   0  -3  18 2604.79 1470.05   2
   0  -3  19 2277.11 1460.77   1
   0  -3  19 718.183 1146.74   2
   0  -3  20-370.816 723.579   1
   0  -3  20 899.814 1030.47   2
   0  -3  21 118.722 760.052   1
   0  -2 -24 988.685 895.312   5
   0  -2 -23-954.572 799.766   5
   0  -2 -22-1433.33 928.664   5
   0  -2 -21 856.814 709.158   5
   0  -2 -20 1316.10 1078.81   5
   0  -2 -20 0.79818 549.383   4
   0  -2 -19 1862.86 1178.20   5
   0  -2 -19 1122.83 684.627   4
   0  -2 -19 1177.82 710.033   7
   0  -2 -19 1317.80 868.437  10
   0  -2 -18-37.3195 426.654   5
   0  -2 -18 2.09041 406.234   4
   0  -2 -18-128.745 446.306   7
   0  -2 -18 325.686 458.607  10
   0  -2 -17-81.4667 497.844   4
   0  -2 -17-37.5288 375.394  10
   0  -2 -17-445.826 327.997   7
   0  -2 -16 4089.37 1358.68   5
   0  -2 -16 1201.08 711.058   4
   0  -2 -16 2023.06 675.926   7
   0  -2 -16 2577.27 893.290  10
   0  -2 -15 3018.06 1009.53   4
   0  -2 -15 3693.25 1020.10  10
   0  -2 -15 3331.65 929.375   7
   0  -2 -14 7140.06 1348.03   4
   0  -2 -14 8093.07 1235.09   7
   0  -2 -13 15767.8 1852.32   4
   0  -2 -13 14135.9 1597.44   7
   0  -2 -12 17040.8 1899.36   4
   0  -2 -12 16596.9 1695.49   7
   0  -2 -11 11102.2 1312.14   7
   0  -2 -11 13346.4 1562.94   4
   0  -2 -10 1305.91 576.893   4
   0  -2 -10 1487.09 508.995   7
   0  -2  -9 21083.4 1676.57   7
   0  -2  -9 20575.2 1643.83   4
   0  -2  -8 80863.2 3445.99   7
   0  -2  -8 76533.2 3346.64   4
   0  -2  -7 142833. 4808.62   4
   0  -2  -7 151360. 4968.35   7
   0  -2  -6 157199. 4892.63   4
   0  -2  -6 160683. 5104.06   7
   0  -2  -5 90396.9 3311.93   7
   0  -2  -5 87135.0 3030.63   4
   0  -2  -4 35269.9 1805.16   7
   0  -2  -4 32700.9 1485.96   4
   0  -2  -4 34246.1 2084.89  10
   0  -2  -3 6251.83 552.809   4
   0  -2  -3 5593.42 798.464  10
   0  -2  -3 4945.54 652.289   7
   0  -2  -2 472232. 11569.5  10
   0  -2  -2 439451. 11186.2   7
   0  -2  -2 440720. 10922.4   8
   0  -2  -2 443165. 10289.3   5
   0  -2  -1 3913.52 495.816   8
   0  -2  -1 3807.11 529.235   2
   0  -2  -1 3909.60 351.618   5
   0  -2  -1 4391.48 522.493   3
   0  -2  -1 4220.93 650.398  10
   0  -2   0 438618. 11023.9   8
   0  -2   0 450154. 11156.7   2
   0  -2   0 428174. 10258.7   6
   0  -2   0 401889. 10651.9   3
   0  -2   0 411756. 10501.0   5
   0  -2   1 434617. 11035.9   2
   0  -2   1 423622. 10130.5   3
   0  -2   1 415305. 10567.5   5
   0  -2   2 160304. 5240.78   2
   0  -2   2 170423. 5243.95   1
   0  -2   3 19071.8 1478.39   2
   0  -2   3 18566.5 1436.35   1
   0  -2   4 3264.57 628.069   1
   0  -2   4 3735.37 767.370   2
   0  -2   5 54689.8 2798.24   2
   0  -2   5 53905.6 2849.04   1
   0  -2   6 42273.3 2550.66   2
   0  -2   6 43967.7 2645.22   1
   0  -2   7 153172. 5713.33   2
   0  -2   7 152672. 5929.54   1
   0  -2   8 75829.8 3841.18   2
   0  -2   8 79562.2 4103.69   1
   0  -2   9 29315.9 2409.95   2
   0  -2   9 32744.6 2655.73   1
   0  -2  10 3285.22 870.812   2
   0  -2  10 4883.85 1095.42   1
   0  -2  11 2334.01 952.111   1
   0  -2  11-712.808 726.238   2
   0  -2  12 10279.3 1634.98   2
   0  -2  12 9925.68 1718.24   1
   0  -2  13 13307.1 2031.86   1
   0  -2  13 10763.3 1668.97   2
   0  -2  14 13605.8 2132.90   1
   0  -2  14 11533.2 1889.93   2
   0  -2  15 2420.08 1146.39   2
   0  -2  15 4315.67 1400.17   1
   0  -2  16 3144.90 1400.90   1
   0  -2  16-177.972 698.241   2
   0  -2  17 1086.44 1042.27   1
   0  -2  17 525.907 721.509   2
   0  -2  18-773.553 916.134   1
   0  -2  18-521.484 678.477   2
   0  -2  19 726.100 814.449   1
   0  -2  19 614.437 723.721   2
   0  -2  20 784.493 1133.47   1
   0  -2  21 2019.90 1238.23   1
   0  -2  22-1791.47 1472.72   1
   0  -1 -24 638.356 823.831   5
   0  -1 -23-132.465 791.776   5
   0  -1 -22-146.318 696.665   5
   0  -1 -21 600.464 1022.80   5
   0  -1 -20 929.217 892.087   5
   0  -1 -19 927.566 998.303   5
   0  -1 -19 1318.19 789.469   4
   0  -1 -18 2106.94 1089.16   5
   0  -1 -18 888.200 525.361   4
   0  -1 -18 2088.75 913.771  10
   0  -1 -17 3952.83 1483.20   5
   0  -1 -17 4280.34 1114.13   4
   0  -1 -16 644.963 424.703   4
   0  -1 -16 1874.21 734.953   7
   0  -1 -15 5012.24 1384.55   5
   0  -1 -15 3161.20 1032.05   4
   0  -1 -15 2607.44 803.392   7
   0  -1 -14-685.024 690.469   4
   0  -1 -14 306.900 390.501   7
   0  -1 -13 3550.11 961.788   4
   0  -1 -13 2097.48 699.559   7
   0  -1 -12 19042.7 1967.02   4
   0  -1 -12 15058.2 1603.98   7
   0  -1 -11 35311.1 2404.78   7
   0  -1 -11 39415.3 2788.55   4
   0  -1 -10 49282.3 2974.61   4
   0  -1 -10 45474.9 2626.63   7
   0  -1  -9 64343.7 3317.77   4
   0  -1  -9 60771.3 2992.21   7
   0  -1  -8 7026.39 1047.87   4
   0  -1  -8 6590.45 846.197   7
   0  -1  -7 1372.16 529.970   4
   0  -1  -7 1126.32 355.805   7
   0  -1  -6 35482.1 1789.80   7
   0  -1  -6 31018.3 1825.45   4
   0  -1  -5 219830. 6200.85   7
   0  -1  -5 230702. 6352.36   4
   0  -1  -4 325060. 8272.98   4
   0  -1  -4 353026. 8373.07   7
   0  -1  -3 119760. 3454.95   7
   0  -1  -3 111992. 3825.30   3
   0  -1  -3 118053. 3328.41   4
   0  -1  -2 12107.1 739.079   7
   0  -1   2 73145.5 2463.13   9
   0  -1   2 67947.2 2509.74   4
   0  -1   2 73466.7 2497.87   2
   0  -1   2 77469.7 2545.68   1
   0  -1   3 123336. 3928.44   2
   0  -1   3 135642. 4058.65   1
   0  -1   4 148297. 4740.58   2
   0  -1   4 159809. 4894.84   1
   0  -1   5 171417. 5463.13   2
   0  -1   5 176125. 5611.09   1
   0  -1   6 142494. 4976.71   2
   0  -1   6 149802. 5207.18   1
   0  -1   7 16027.9 1447.07   2
   0  -1   7 16957.7 1563.16   1
   0  -1   8 13586.0 1398.23   2
   0  -1   8 11473.0 1342.42   1
   0  -1   9 36308.3 2515.37   2
   0  -1   9 40626.6 2793.27   1
   0  -1  10 29438.5 2356.89   2
   0  -1  10 28586.5 2518.26   1
   0  -1  11 18388.7 1983.03   2
   0  -1  11 19933.7 2228.30   1
   0  -1  12 14864.3 1860.47   2
   0  -1  12 12955.6 1830.90   1
   0  -1  13 4684.17 1168.71   2
   0  -1  13 5904.75 1392.00   1
   0  -1  14 1995.35 897.433   2
   0  -1  14 1926.76 1049.66   1
   0  -1  15 1505.33 736.174   2
   0  -1  15 756.618 741.569   1
   0  -1  16 1200.97 584.456   2
   0  -1  16 2242.16 1053.87   1
   0  -1  17 2472.39 1000.54   2
   0  -1  17 3534.70 1493.72   1
   0  -1  18 2017.75 992.926   2
   0  -1  18 3769.65 1522.83   1
   0  -1  19-501.750 799.296   1
   0  -1  19 530.436 659.209   2
   0  -1  20 494.050 726.146   1
   0  -1  21 314.464 1107.58   1
   0  -1  22 1746.41 1291.62   1
   0   0 -23 270.709 752.606   5
   0   0 -22 405.380 518.358   5
   0   0 -21 609.462 739.334   5
   0   0 -20 1155.47 998.070   5
   0   0 -19 765.672 905.325   5
   0   0 -18 117.508 603.403   5
   0   0 -18-470.374 531.361   4
   0   0 -17 1520.55 971.243   5
   0   0 -17-192.647 451.315   4
   0   0 -16 3036.41 1242.17   5
   0   0 -16 1031.63 471.740   4
   0   0 -15 4226.27 1355.33   5
   0   0 -15 1765.73 663.683   4
   0   0 -14 14666.8 1983.27   4
   0   0 -14 15653.6 2312.26   5
   0   0 -13 20365.8 2218.25   4
   0   0 -12 12926.4 1668.18   4
   0   0 -12 12504.0 1513.72   7
   0   0 -11 2825.57 825.948   4
   0   0 -11 2923.49 737.429   7
   0   0 -10 3343.23 911.923   4
   0   0 -10 3470.11 721.889   7
   0   0  -9 37153.2 2627.34   4
   0   0  -9 34007.3 2198.57   7
   0   0  -8 29373.6 2139.42   4
   0   0  -8 28625.3 1870.94   7
   0   0  -7 96322.1 3673.80   7
   0   0  -7 102246. 4237.38   4
   0   0  -6 110228. 3956.84   7
   0   0  -6 124262. 4394.93   4
   0   0  -5 174907. 5560.92   4
   0   0  -5 188138. 5310.77   7
   0   0  -4 180784. 5049.41   7
   0   0  -4 181304. 5250.25   3
   0   0  -4 188383. 5436.30   4
   0   0  -3 12856.7 843.180   4
   0   0  -3 12428.5 751.259   7
   0   0  -3 12628.8 836.873   3
   0   0  -3 11622.2 778.587   1
   0   0   3 10897.2 764.190   4
   0   0   3 11115.4 715.176   7
   0   0   3 12150.5 775.831   3
   0   0   3 13505.3 873.920   1
   0   0   4 174809. 4970.43   7
   0   0   4 173886. 5235.14   1
   0   0   5 196753. 5704.48   3
   0   0   5 186167. 5819.65   1
   0   0   6 107285. 3976.04   2
   0   0   6 122090. 4185.15   3
   0   0   6 118338. 4374.80   1
   0   0   7 95333.9 3784.03   2
   0   0   7 103042. 3929.74   3
   0   0   7 99648.1 4131.80   1
   0   0   8 27466.7 1883.12   2
   0   0   8 29076.6 1995.19   3
   0   0   8 28724.8 2145.01   1
   0   0   9 32665.1 2240.76   2
   0   0   9 38040.6 2476.30   3
   0   0   9 39295.9 2657.70   1
   0   0  10 4465.31 1042.57   1
   0   0  10 2560.49 678.618   2
   0   0  10 3854.78 857.938   3
   0   0  11 2440.67 795.126   2
   0   0  11 3373.98 1039.28   1
   0   0  11 3302.98 843.525   3
   0   0  12 13622.1 1701.03   2
   0   0  12 13885.2 1649.91   3
   0   0  12 16198.0 2092.37   1
   0   0  13 18249.1 2089.48   2
   0   0  13 19592.0 2104.47   3
   0   0  13 19950.2 2312.23   1
   0   0  14 13083.7 1969.85   1
   0   0  14 14379.4 1919.82   2
   0   0  15 3102.47 1238.30   1
   0   0  15 2763.82 1004.90   2
   0   0  16 1106.65 782.557   2
   0   0  16 3088.15 1467.59   1
   0   0  17 1350.53 841.082   2
   0   0  17-614.701 996.729   1
   0   0  18 537.059 712.533   2
   0   0  18 281.179 862.191   1
   0   0  19 95.6538 536.081   2
   0   0  19 1035.31 853.111   1
   0   0  20 3261.96 1451.05   1
   0   0  21 1043.76 913.974   1
   0   0  22-1185.25 1269.49   1
   0   0  23-552.270 980.316   1
   0   1 -23-538.754 853.021   5
   0   1 -22 1267.65 1071.40   5
   0   1 -21-492.250 818.794   5
   0   1 -20 128.535 703.861   5
   0   1 -19 1531.73 888.949   5
   0   1 -18 3619.63 1377.29   5
   0   1 -17 2027.78 988.960   5
   0   1 -16 2928.57 1080.31   5
   0   1 -16-60.0605 614.423   4
   0   1 -15 976.203 884.868   5
   0   1 -15 1049.49 516.080   4
   0   1 -14 1817.38 1080.85   5
   0   1 -14 713.549 597.660   4
   0   1 -13 5189.45 1335.09   5
   0   1 -13 5513.76 1151.85   4
   0   1 -12 11739.6 1891.42   5
   0   1 -12 12715.4 1739.12   4
   0   1 -11 20648.3 2169.59   4
   0   1 -10 31437.5 2573.02   4
   0   1  -9 43282.7 2942.85   4
   0   1  -8 11384.5 1369.96   4
   0   1  -7 17122.2 1606.04   4
   0   1  -6 150956. 5253.08   4
   0   1  -6 135111. 4376.80   3
   0   1  -5 195704. 6062.01   4
   0   1  -5 172884. 4977.83   3
   0   1  -4 157350. 4791.76   9
   0   1  -4 167141. 5143.75   4
   0   1  -4 155798. 4260.95   3
   0   1  -3 138003. 4206.91   4
   0   1  -3 128144. 3919.00   9
   0   1  -3 136808. 4029.64   2
   0   1  -3 126573. 3356.04   3
   0   1  -2 79452.0 2649.64   4
   0   1  -2 77903.6 2583.24   2
   0   1  -2 76057.4 2569.28   1
   0   1  -2 74701.9 2503.44   9
   0   1   2 10674.8 591.518   4
   0   1   3 116651. 3474.35   7
   0   1   3 121730. 3872.38   3
   0   1   3 110700. 3288.09   4
   0   1   4 316559. 8272.46   4
   0   1   4 324816. 8377.21   7
   0   1   4 340013. 9047.43   3
   0   1   5 233581. 7133.83   3
   0   1   6 34530.4 2211.83   3
   0   1   7 1569.98 563.994   1
   0   1   7 1693.47 625.198   3
   0   1   8 7288.23 1085.38   1
   0   1   8 6337.37 1117.10   3
   0   1   9 68976.5 3652.12   3
   0   1   9 62215.6 3448.78   1
   0   1  10 47915.1 3160.35   3
   0   1  10 44385.5 3048.28   1
   0   1  11 36795.6 2914.42   3
   0   1  11 35263.9 2870.19   1
   0   1  12 13125.0 1641.16   2
   0   1  12 17064.7 2074.82   3
   0   1  12 15355.4 2068.81   1
   0   1  13 1868.63 720.408   2
   0   1  13 3211.33 989.296   1
   0   1  13 3100.95 1093.47   3
   0   1  14 97.1667 383.089   2
   0   1  14 1158.78 822.637   1
   0   1  14-691.332 629.043   3
   0   1  15 1799.35 748.950   2
   0   1  15 2004.11 905.551   1
   0   1  15 1917.17 876.587   3
   0   1  16 1171.63 637.122   3
   0   1  16-330.313 396.773   2
   0   1  16 1849.33 1025.07   1
   0   1  17 3676.12 1175.12   2
   0   1  17 4267.07 1268.78   1
   0   1  18 3204.09 1300.77   1
   0   1  18 1356.64 854.101   2
   0   1  19 1688.43 1142.17   1
   0   1  19 338.391 681.142   2
   0   1  20-116.103 687.674   1
   0   1  21-174.090 569.863   1
   0   1  22 1.21561 945.190   1
   0   1  23 2061.55 1221.81   1
   0   2 -22 80.4791 577.373   5
   0   2 -21 1200.80 1209.24   5
   0   2 -20-280.039 879.358   5
   0   2 -19 1085.33 1121.01   5
   0   2 -18 908.667 971.335   5
   0   2 -17 523.677 1102.78   5
   0   2 -16 597.274 791.007   5
   0   2 -15 3428.45 1185.98   5
   0   2 -14 13149.1 2157.27   5
   0   2 -13 12364.2 1979.55   5
   0   2 -12 11646.3 1874.84   5
   0   2 -12 10863.8 1645.71   4
   0   2 -11 2043.79 1008.56   5
   0   2 -11-205.921 710.983   4
   0   2 -10 6948.28 1475.93   5
   0   2 -10 5010.84 1023.06   4
   0   2  -9 35509.4 2727.13   4
   0   2  -9 35716.4 2903.41   5
   0   2  -8 79676.3 4118.47   4
   0   2  -8 83644.3 4392.29   5
   0   2  -7 164475. 6053.25   4
   0   2  -7 160394. 6172.20   5
   0   2  -6 45130.4 2459.27   9
   0   2  -6 44118.7 2644.32   4
   0   2  -6 41230.9 1712.15   3
   0   2  -6 48387.8 2912.68   5
   0   2  -5 54069.0 2787.99   4
   0   2  -5 54502.8 2624.33   9
   0   2  -5 48580.9 1747.52   3
   0   2  -5 58643.1 2920.98   5
   0   2  -4 4363.43 679.758   9
   0   2  -4 4673.23 833.498   5
   0   2  -3 17924.0 763.324   3
   0   2  -3 18322.2 1314.52   9
   0   2  -3 20174.4 1441.54   5
   0   2  -2 170350. 5101.43   9
   0   2  -2 161636. 4181.15   3
   0   2  -2 162350. 4950.90   5
   0   2  -1 461829. 11425.7   9
   0   2  -1 439536. 10605.6   3
   0   2  -1 440504. 10946.1   5
   0   2   0 411219. 10548.5  10
   0   2   0 422490. 10225.2   3
   0   2   0 416952. 10025.8   5
   0   2   1 4342.12 512.472   8
   0   2   1 3494.01 341.287   5
   0   2   1 4213.12 558.888   3
   0   2   2 458851. 10967.7   6
   0   2   2 471323. 12041.8   3
   0   2   2 478517. 11501.9   8
   0   2   3 6233.08 700.257   8
   0   2   3 5658.66 520.785   4
   0   2   3 6033.15 842.213   3
   0   2   4 31335.5 1498.06   4
   0   2   4 33049.4 2201.26   3
   0   2   5 91882.1 4054.18   3
   0   2   6 155080. 5889.07   3
   0   2   7 155420. 6174.05   3
   0   2   8 77046.6 4092.62   3
   0   2   9 21185.8 2272.03   3
   0   2  10 441.640 618.324   1
   0   2  10 1647.42 1060.20   3
   0   2  11 10828.3 1629.13   1
   0   2  11 11366.9 1818.66   3
   0   2  12 20207.6 2369.66   3
   0   2  12 14700.8 1846.89   1
   0   2  13 13846.9 1960.27   1
   0   2  13 13020.5 1978.20   3
   0   2  14 8670.78 1625.49   1
   0   2  14 7380.54 1535.58   3
   0   2  15 3182.05 1125.51   3
   0   2  15 4161.21 1239.45   1
   0   2  16 2102.19 822.670   2
   0   2  16 1116.74 799.123   3
   0   2  16 1375.82 879.108   1
   0   2  17-317.230 600.314   2
   0   2  17-8.94789 697.236   1
   0   2  17 1830.96 1023.90   3
   0   2  18-32.5031 559.187   2
   0   2  18 267.225 689.036   1
   0   2  18-894.583 846.609   3
   0   2  19 1745.87 1214.16   1
   0   2  20 491.775 690.924   1
   0   2  21 1209.89 981.880   1
   0   2  22 453.250 629.187   1
   0   2  23 925.885 1063.65   1
   0   3 -21 2551.67 1399.59   5
   0   3 -20 307.342 907.405   5
   0   3 -19-507.686 918.903   5
   0   3 -18 1197.67 942.090   5
   0   3 -17 1325.50 775.651   5
   0   3 -16 1408.25 1081.06   5
   0   3 -15 14.3615 521.437   5
   0   3 -14 1832.32 852.670   5
   0   3 -13 1705.44 1174.48   5
   0   3 -12 11437.8 1941.98   5
   0   3 -11 20915.5 2448.81   5
   0   3 -10 27085.6 2675.75   5
   0   3  -9 20470.0 1271.05   3
   0   3  -9 23939.1 2395.08   5
   0   3  -8 10540.3 1350.23   9
   0   3  -8 8953.03 738.671   3
   0   3  -7-478.728 508.884   5
   0   3  -7-168.232 392.337   9
   0   3  -7 14.2368 112.917   3
   0   3  -6 45152.1 2652.27   9
   0   3  -6 50183.9 2982.95   5
   0   3  -5 33702.0 2193.02   9
   0   3  -5 34181.0 1277.43   3
   0   3  -5 40033.8 2529.76   5
   0   3  -4 256481. 7816.91   9
   0   3  -4 242180. 6240.26   3
   0   3  -3 205562. 6568.77   9
   0   3  -3 198248. 5277.22   3
   0   3  -3 209303. 6502.28   5
   0   3  -2 78287.8 3448.93   9
   0   3  -2 78530.7 2650.70   3
   0   3  -2 78108.5 3151.18   5
   0   3  -1 12878.0 940.020   3
   0   3  -1 11327.2 1152.23   9
   0   3  -1 11665.3 974.698   5
   0   3   0 5750.84 765.761   8
   0   3   0 4103.09 560.471   3
   0   3   0 4171.83 533.927   5
   0   3   1 58587.6 2529.72   8
   0   3   1 54613.0 1778.47   6
   0   3   1 58766.4 2659.49   3
   0   3   1 57171.6 2065.98   5
   0   3   2 225017. 6650.11   8
   0   3   2 230652. 5786.63   6
   0   3   2 242895. 7203.33   3
   0   3   2 232837. 5905.30   5
   0   3   3 264590. 7343.89   8
   0   3   3 251922. 6582.96   6
   0   3   3 253925. 7976.09   3
   0   3   4 120516. 4291.16   8
   0   3   4 119830. 3909.78   6
   0   3   5 30967.3 1947.88   8
   0   3   5 32636.7 2466.14   3
   0   3   6 4620.89 824.860   8
   0   3   6 4980.90 993.832   3
   0   3   7 554.520 603.943   3
   0   3   8 16293.2 1941.03   3
   0   3   9 34893.3 3093.30   3
   0   3  10 27645.1 2752.36   3
   0   3  11 34334.4 3175.66   3
   0   3  12 11791.6 1739.12   1
   0   3  12 16743.1 2233.03   3
   0   3  13 2697.24 1090.76   1
   0   3  13 4346.14 1389.91   3
   0   3  14 1161.50 902.523   1
   0   3  14 1533.14 965.559   3
   0   3  15 3665.82 1335.64   3
   0   3  15 1903.50 913.769   1
   0   3  16 3512.16 1121.07   1
   0   3  16 5955.56 1613.34   3
   0   3  17 4382.65 1357.12   1
   0   3  17 5512.02 1604.27   3
   0   3  18-154.376 517.567   2
   0   3  18 912.631 933.743   3
   0   3  18 457.716 625.135   1
   0   3  19 1404.08 1162.19   1
   0   3  19 1118.49 894.237   3
   0   3  20 693.326 858.876   1
   0   3  20-53.3795 554.523   3
   0   3  21 896.524 807.433   1
   0   3  22-375.674 790.036   1
   0   3  23-1375.44 851.897   1
   0   4 -21 85.6843 630.270   5
   0   4 -20 1483.66 1288.75   5
   0   4 -19 1602.41 1008.87   5
   0   4 -18 126.815 925.816   5
   0   4 -17 2700.18 1381.97   5
   0   4 -16 97.4157 526.218   5
   0   4 -15 4064.13 1451.50   5
   0   4 -14 6033.58 1483.01   5
   0   4 -13 7146.49 1679.71   5
   0   4 -12 5828.99 1546.20   5
   0   4 -11 1100.31 892.903   5
   0   4 -10 7391.34 1531.41   5
   0   4  -9 20949.7 939.191   3
   0   4  -9 24384.8 2309.13   9
   0   4  -8 36071.2 2682.41   9
   0   4  -8 30527.2 1124.00   3
   0   4  -8 43515.7 3133.53   5
   0   4  -7 25183.8 996.050   3
   0   4  -7 32065.2 2497.51   9
   0   4  -7 35796.2 2758.12   5
   0   4  -6 14483.1 1659.89   9
   0   4  -6 12485.2 713.399   3
   0   4  -5 14971.6 856.089   3
   0   4  -5 19688.8 1798.94   5
   0   4  -5 19655.8 1814.13   9
   0   4  -4 300.089 295.503   9
   0   4  -4 314.039 175.896   3
   0   4  -3 6221.05 867.929   5
   0   4  -3 6073.73 1006.56   9
   0   4  -3 5657.36 639.703   3
   0   4  -2 41070.9 1971.12   3
   0   4  -2 40443.3 2598.21   9
   0   4  -2 39141.6 2243.49   5
   0   4  -1 95123.3 4273.91   9
   0   4  -1 98889.0 3672.44   3
   0   4  -1 96120.2 3684.11   5
   0   4   0 166794. 5486.81   3
   0   4   0 158297. 5049.21   5
   0   4   0 157435. 5950.10   9
   0   4   1 167620. 5884.18   3
   0   4   1 183770. 5964.73   8
   0   4   1 167606. 5063.70   5
   0   4   2 78082.7 3364.15   8
   0   4   2 70517.7 2262.27   6
   0   4   2 76091.2 3581.00   3
   0   4   2 70151.4 2501.12   5
   0   4   3 17395.3 1452.64   8
   0   4   3 14342.7 866.108   6
   0   4   3 16168.8 1639.63   3
   0   4   4 7658.62 963.159   8
   0   4   4 7236.88 721.789   6
   0   4   4 8362.06 1266.16   3
   0   4   5 86858.6 3858.88   8
   0   4   5 99928.2 4729.36   3
   0   4   6 101078. 4341.99   8
   0   4   6 112449. 5314.87   3
   0   4   7 80076.6 4593.55   3
   0   4   7 79689.8 3829.50   8
   0   4   8 32946.6 2481.49   8
   0   4   8 33909.2 3012.35   3
   0   4   9 4882.15 1098.00   8
   0   4   9 4087.73 1080.87   3
   0   4  10 2231.76 1157.63   3
   0   4  11 7983.66 1578.42   3
   0   4  12 12887.8 2168.57   3
   0   4  13 10461.8 2017.17   3
   0   4  14 7436.89 1733.56   3
   0   4  14 4607.13 1316.71   1
   0   4  15 2925.03 974.011   1
   0   4  15 3869.95 1510.34   3
   0   4  16 1586.43 856.253   1
   0   4  16 1757.07 1220.98   3
   0   4  17 165.839 590.972   3
   0   4  17-438.860 602.069   1
   0   4  18-888.444 871.662   1
   0   4  18 173.853 621.437   3
   0   4  19 850.831 944.525   1
   0   4  19-399.583 615.993   3
   0   4  20-138.154 845.964   3
   0   4  20 1544.71 1094.64   1
   0   4  21 372.919 605.245   3
   0   4  21 364.402 797.886   1
   0   4  22 284.289 817.969   1
   0   4  23-1.28154 607.389   1
   0   5 -20-136.411 603.048   5
   0   5 -19-616.396 794.302   5
   0   5 -18 2073.12 1190.03   5
   0   5 -17 451.601 976.332   5
   0   5 -16 2160.92 1088.24   5
   0   5 -15 674.168 722.433   5
   0   5 -14 584.097 560.832   5
   0   5 -13 4068.99 1345.60   5
   0   5 -12 9310.08 1818.83   5
   0   5 -11 9098.23 1752.53   5
   0   5 -11 6333.46 1350.01   9
   0   5 -10 9176.40 1625.21   5
   0   5 -10 10660.6 1665.35   9
   0   5  -9 10322.7 1699.81   5
   0   5  -9 7854.07 1324.45   9
   0   5  -8 5830.83 1295.44   5
   0   5  -8 4884.83 1055.40   9
   0   5  -7 561.859 613.060   5
   0   5  -7 116.283 492.531   9
   0   5  -6 15655.0 1804.18   9
   0   5  -6 12528.7 788.890   3
   0   5  -6 16844.3 1918.91   5
   0   5  -5 75630.0 3937.12   5
   0   5  -5 71742.9 3964.96   9
   0   5  -4 140882. 5879.52   9
   0   5  -4 147715. 5659.31   5
   0   5  -3 62635.1 3708.57   9
   0   5  -3 64271.8 2766.54   3
   0   5  -3 66596.6 3410.93   5
   0   5  -2 41846.4 2894.74   9
   0   5  -2 40559.3 2219.57   3
   0   5  -2 37293.9 2371.36   5
   0   5  -1 609.807 501.609   9
   0   5  -1 380.217 380.976   3
   0   5  -1 1113.20 481.738   5
   0   5   0 19978.2 1991.70   9
   0   5   0 21664.3 1751.42   3
   0   5   0 21358.9 1555.07   5
   0   5   1 75765.9 3719.76   8
   0   5   1 71762.6 3629.65   3
   0   5   1 69287.4 2912.85   5
   0   5   2 100434. 4367.26   8
   0   5   2 98455.4 4545.10   3
   0   5   2 95878.4 3389.00   5
   0   5   3 70922.6 3404.18   8
   0   5   3 72024.4 3782.34   3
   0   5   4 64598.1 3272.51   8
   0   5   4 66178.0 3793.13   3
   0   5   5 30710.7 2235.03   8
   0   5   5 31121.0 2802.25   3
   0   5   6 1579.18 611.355   8
   0   5   6 2120.29 971.480   3
   0   5   7 5849.87 1028.29   8
   0   5   7 6743.90 1469.44   3
   0   5   8 18137.5 1879.25   8
   0   5   8 19573.8 2352.93   3
   0   5   9 28348.8 2398.97   8
   0   5   9 29065.7 3170.42   3
   0   5  10 25378.2 2421.85   8
   0   5  10 27278.7 3115.34   3
   0   5  11 18654.4 2158.09   8
   0   5  11 18312.1 2686.74   3
   0   5  12 5714.98 1277.06   8
   0   5  12 3251.90 1317.79   3
   0   5  13 2511.06 1056.59   8
   0   5  13 1719.61 1132.66   3
   0   5  14 943.923 761.440   8
   0   5  14 1940.10 1247.19   3
   0   5  15 3297.32 1302.84   3
   0   5  16 4680.89 1642.02   3
   0   5  16 1782.57 790.724   1
   0   5  17 3208.97 1535.34   3
   0   5  17 2594.66 1087.01   1
   0   5  18-162.366 574.595   1
   0   5  18 2148.12 1343.62   3
   0   5  19 1478.45 981.880   1
   0   5  19 2401.23 1388.08   3
   0   5  20 1661.78 1001.54   1
   0   5  20-32.5477 671.410   3
   0   5  21 1059.19 905.138   1
   0   5  21 87.1165 684.430   3
   0   5  22-33.0557 973.526   3
   0   5  22 22.4815 712.215   1
   0   6 -19-339.342 1004.43   5
   0   6 -18 652.387 941.588   5
   0   6 -17 800.728 668.598   5
   0   6 -16 1387.69 939.376   5
   0   6 -15 1026.23 877.670   5
   0   6 -14 1066.34 1064.50   5
   0   6 -13 798.717 876.727   5
   0   6 -12 1409.20 869.332   5
   0   6 -11 732.053 723.136   5
   0   6 -11-134.992 424.107   9
   0   6 -10 1277.27 946.917   5
   0   6 -10 2367.97 945.716   9
   0   6  -9 10808.6 1820.72   5
   0   6  -9 11088.1 1739.07   9
   0   6  -8 19118.9 2303.28   9
   0   6  -8 23174.3 2534.74   5
   0   6  -7 19157.5 2190.58   9
   0   6  -7 24630.6 2469.25   5
   0   6  -6 11708.9 1692.61   9
   0   6  -6 9644.63 756.190   3
   0   6  -5 3571.36 1089.78   9
   0   6  -5 2592.00 495.612   3
   0   6  -5 1982.62 679.974   5
   0   6  -4 1582.40 786.652   9
   0   6  -4 1581.32 493.883   5
   0   6  -4 1637.83 466.950   3
   0   6  -3 7242.51 1321.91   9
   0   6  -3 6305.66 920.244   3
   0   6  -3 9593.68 1338.98   5
   0   6  -2 38747.6 3079.34   9
   0   6  -2 36418.6 2360.38   3
   0   6  -2 39175.2 2560.92   5
   0   6  -1 63263.8 3293.27   3
   0   6  -1 61847.5 3179.02   5
   0   6  -1 57715.3 3845.20   9
   0   6   0 54584.7 3766.46   9
   0   6   0 56713.8 3281.92   3
   0   6   0 57173.9 2922.67   5
   0   6   1 22497.9 2353.04   9
   0   6   1 26469.6 2251.50   3
   0   6   1 23961.0 1682.00   5
   0   6   2 4200.49 941.686   8
   0   6   2 4778.62 1018.29   3
   0   6   2 3152.22 610.571   5
   0   6   3 1200.48 626.408   8
   0   6   3 3.37908 208.546   5
   0   6   3 672.678 754.718   3
   0   6   4 5366.37 1038.00   8
   0   6   4 3117.36 428.518   6
   0   6   4 6367.79 1347.72   3
   0   6   5 40918.2 2801.37   8
   0   6   5 32946.4 1584.07   6
   0   6   5 41703.6 3261.49   3
   0   6   6 30920.1 2967.14   3
   0   6   6 29488.1 2414.98   8
   0   6   7 33431.3 2658.09   8
   0   6   7 40887.0 3502.07   3
   0   6   8 18412.9 2449.58   3
   0   6   8 20876.6 2096.41   8
   0   6   9 3570.73 937.018   8
   0   6   9 7446.77 1608.95   3
   0   6  10 142.976 448.256   8
   0   6  10 1136.89 943.857   3
   0   6  11 5160.95 1146.88   8
   0   6  11 4914.82 1482.96   3
   0   6  12 7700.77 1491.95   8
   0   6  12 10935.1 2143.73   3
   0   6  13 7224.60 1524.39   8
   0   6  13 8920.86 1980.99   3
   0   6  14 4183.60 1222.53   8
   0   6  14 5242.33 1657.55   3
   0   6  15 1785.43 1156.15   8
   0   6  15 374.244 588.838   3
   0   6  16 1680.24 993.554   8
   0   6  16 618.458 1357.40   3
   0   6  17 2091.69 1291.85   8
   0   6  17-161.881 789.524   1
   0   6  17 799.516 772.568   3
   0   6  18 1260.78 988.087   8
   0   6  18 846.866 777.926   1
   0   6  18 1281.13 1186.48   3
   0   6  19 971.340 1017.65   8
   0   6  19 951.568 861.747   1
   0   6  19 2464.82 1355.36   3
   0   6  20 989.310 1001.07   3
   0   6  20 1925.10 1098.88   1
   0   6  21-977.975 1076.81   1
   0   6  21-435.586 986.543   3
   0   6  22 741.125 923.288   1
   0   6  22-1132.97 996.114   3
   0   7 -18 448.869 915.508   5
   0   7 -17 1323.83 1023.20   5
   0   7 -16 1847.25 826.301   5
   0   7 -15 2268.33 1438.83   5
   0   7 -14 889.157 864.277   5
   0   7 -13 647.812 942.709   5
   0   7 -12 4796.90 1353.21   5
   0   7 -12 2226.08 1018.76   9
   0   7 -11 6758.03 1812.40   5
   0   7 -11 2744.50 1087.11   9
   0   7 -10 4324.21 1307.75   5
   0   7 -10 4493.74 1250.11   9
   0   7  -9 3196.55 978.220   5
   0   7  -9 2918.53 1010.20   9
   0   7  -8 901.510 774.750   5
   0   7  -8 906.235 793.024   9
   0   7  -7 2320.65 927.523   9
   0   7  -7 2362.81 965.428   5
   0   7  -6 10169.0 1721.23   9
   0   7  -6 14424.9 1999.48   5
   0   7  -5 20538.9 2410.64   9
   0   7  -5 24508.0 2409.08   5
   0   7  -4 21676.7 2465.36   9
   0   7  -4 19840.4 1587.72   3
   0   7  -4 24213.2 2284.60   5
   0   7  -3 17553.1 1607.19   3
   0   7  -3 19281.3 1942.53   5
   0   7  -3 19109.4 2369.91   9
   0   7  -2 13245.6 1796.63   9
   0   7  -2 13786.2 1518.67   3
   0   7  -2 12696.9 1546.85   5
   0   7  -1 326.158 720.609   9
   0   7  -1 869.577 625.808   3
   0   7  -1 375.893 330.917   5
   0   7   0 2278.36 845.286   9
   0   7   0 1713.17 543.998   3
   0   7   0 2200.05 628.652   5
   0   7   1 16817.5 2209.84   9
   0   7   1 19950.8 2087.39   3
   0   7   1 19964.2 1625.34   5
   0   7   2 48987.2 3420.02   3
   0   7   2 44428.5 2381.48   5
   0   7   3 69196.1 4076.15   8
   0   7   3 67854.9 4221.15   3
   0   7   3 59636.7 2697.19   5
   0   7   4 43345.0 3450.07   3
   0   7   4 49118.7 3382.88   8
   0   7   5 5397.91 1134.54   8
   0   7   5 4159.82 1242.79   3
   0   7   6 3091.60 990.808   8
   0   7   6 1930.23 816.642   3
   0   7   7 12301.4 1713.82   8
   0   7   7 12791.8 2157.82   3
   0   7   8 15977.4 1933.47   8
   0   7   8 14542.1 2317.55   3
   0   7   9 11527.8 1718.21   8
   0   7   9 13999.4 2285.78   3
   0   7  10 5780.66 1247.46   8
   0   7  10 4675.95 1587.76   3
   0   7  11 3375.63 1052.21   8
   0   7  11 3912.29 1522.96   3
   0   7  12 977.962 749.620   8
   0   7  12-352.812 752.560   3
   0   7  13 148.891 590.301   8
   0   7  13 1777.95 1214.73   3
   0   7  14 383.971 526.544   8
   0   7  14 1703.71 1128.39   3
   0   7  15 1626.74 909.397   8
   0   7  15 1673.92 1182.28   3
   0   7  16 2793.33 1179.75   8
   0   7  16 3343.41 1453.15   3
   0   7  17 2013.13 1462.08   3
   0   7  18 1066.71 834.844   3
   0   7  19-772.685 836.056   1
   0   7  19-1832.78 1306.11   3
   0   7  20 190.161 793.764   1
   0   7  20 2286.15 1613.99   3
   0   7  21-848.514 1039.76   3
   0   7  21-430.494 860.385   1
   0   8 -16-1020.73 884.983   5
   0   8 -15 1244.25 1142.35   5
   0   8 -14 334.610 683.257   5
   0   8 -13 288.867 491.120   9
   0   8 -13 1228.62 992.394   5
   0   8 -12 596.524 721.029   9
   0   8 -12 840.113 739.907   5
   0   8 -11 1295.51 842.832   5
   0   8 -11 614.482 670.019   9
   0   8 -10 2418.63 1047.93   5
   0   8 -10 1517.25 934.045   9
   0   8  -9 3773.07 1185.75   5
   0   8  -9 3797.19 1230.02   9
   0   8  -8 6744.92 1565.90   5
   0   8  -8 2754.17 1145.49   9
   0   8  -7 4153.42 1284.17   9
   0   8  -7 4017.37 1147.23   5
   0   8  -6 3005.56 1002.34   9
   0   8  -6 5512.65 1319.32   5
   0   8  -5 2025.43 947.944   9
   0   8  -5 2011.18 842.135   5
   0   8  -4 894.128 845.715   9
   0   8  -4 422.496 644.661   5
   0   8  -3 4397.11 1248.02   9
   0   8  -3 6953.02 1235.72   5
   0   8  -2 22565.9 2745.62   9
   0   8  -2 20268.8 1937.34   3
   0   8  -2 24335.0 2228.59   5
   0   8  -1 22085.5 2641.84   9
   0   8  -1 21597.2 2172.42   3
   0   8  -1 22448.2 2069.38   5
   0   8   0 15499.2 2196.78   9
   0   8   0 14971.3 1860.75   3
   0   8   0 17609.2 1699.50   5
   0   8   1 6198.36 1508.96   9
   0   8   1 5413.57 1166.89   3
   0   8   1 5608.59 925.478   5
   0   8   2 492.182 686.298   9
   0   8   2 324.074 395.530   3
   0   8   2 648.890 408.104   5
   0   8   3-40.0189 470.648   3
   0   8   4 6744.27 1337.43   8
   0   8   4 5431.13 1322.58   3
   0   8   5 7915.10 1494.70   8
   0   8   5 8687.09 1644.60   3
   0   8   6 10105.2 1625.23   8
   0   8   6 11012.6 1936.99   3
   0   8   7 17639.9 2154.50   8
   0   8   7 19435.0 2608.78   3
   0   8   8 7259.92 1427.51   8
   0   8   8 7827.59 1700.09   3
   0   8   9 2401.35 910.544   8
   0   8   9 3726.76 1596.25   3
   0   8  10 32.6942 416.297   8
   0   8  10 1119.66 1149.31   3
   0   8  11 3094.15 995.657   8
   0   8  11 4020.61 1594.16   3
   0   8  12 5239.98 1314.21   8
   0   8  12 5374.05 1675.41   3
   0   8  13 3993.37 1269.67   8
   0   8  13 3538.53 1448.28   3
   0   8  14 3496.59 1559.64   3
   0   8  15 539.773 1091.18   3
   0   8  16 1365.92 1445.75   3
   0   8  17 1378.33 1040.93   3
   0   8  18 286.782 782.698   3
   0   8  19 1422.60 1010.58   1
   0   8  19 681.952 1148.20   3
   0   8  20 735.927 1095.00   1
   0   9 -15 195.803 550.378   5
   0   9 -14 772.603 874.443   5
   0   9 -13-315.565 638.804   9
   0   9 -13 622.729 731.415   5
   0   9 -12 731.760 834.251   9
   0   9 -12 1793.21 1051.51   5
   0   9 -11 1483.88 934.108   5
   0   9 -11 1632.95 975.140   9
   0   9 -10 2085.60 948.849   9
   0   9 -10 2347.50 1110.77   5
   0   9  -9 281.415 493.107   9
   0   9  -9 1694.90 981.263   5
   0   9  -8 282.021 570.338   9
   0   9  -8 692.697 466.209   5
   0   9  -7 1862.21 1006.40   9
   0   9  -7 1520.55 732.631   5
   0   9  -6 4474.69 1394.74   9
   0   9  -6 4484.75 1165.53   5
   0   9  -5 6378.71 1508.67   9
   0   9  -5 9977.23 1704.43   5
   0   9  -4 7870.57 1663.98   9
   0   9  -4 7622.37 1427.42   5
   0   9  -3 4455.27 1225.16   9
   0   9  -3 5395.87 1138.59   5
   0   9  -2 291.240 731.512   9
   0   9  -2 395.181 351.383   5
   0   9  -1 824.819 835.988   9
   0   9   0 2321.17 1050.48   9
   0   9   0 2058.37 781.255   3
   0   9   1 7609.48 1778.31   9
   0   9   1 9098.02 1510.44   3
   0   9   2 12960.1 2208.08   9
   0   9   2 13344.3 1985.92   3
   0   9   3 10225.4 2132.40   9
   0   9   3 12280.9 1932.43   3
   0   9   4 5299.66 1329.60   3
   0   9   5 1222.24 633.147   8
   0   9   5 1634.63 1048.20   3
   0   9   6 768.389 680.977   8
   0   9   6 2246.73 1171.49   3
   0   9   7 2916.09 970.825   8
   0   9   7 3978.01 1435.21   3
   0   9   8 4996.00 1269.80   8
   0   9   8 6274.93 1698.90   3
   0   9   9 5108.30 1321.71   8
   0   9   9 4373.10 1539.99   3
   0   9  10 5120.75 1331.91   8
   0   9  10 4664.36 1471.43   3
   0   9  11 1561.99 1016.04   3
   0   9  12 1982.02 1456.39   3
   0   9  13 1031.10 1098.82   3
   0   9  14 841.866 1190.47   3
   0   9  15 1780.35 1515.69   3
   0   9  16 1601.78 1142.61   3
   0   9  17-214.398 847.118   3
   0   9  18 1274.64 975.503   3
   0  10 -14 326.443 575.942   5
   0  10 -13 1176.67 1032.89   9
   0  10 -13-186.373 734.338   5
   0  10 -12 1160.25 972.278   9
   0  10 -12-333.631 546.810   5
   0  10 -11 203.654 723.492   9
   0  10 -11 992.809 882.182   5
   0  10 -10 556.370 705.269   9
   0  10 -10 665.759 613.499   5
   0  10  -9 1123.70 921.577   9
   0  10  -9 1118.67 868.516   5
   0  10  -8 915.111 784.404   9
   0  10  -7 1413.03 778.542   9
   0  10  -6 1345.72 901.200   9
   0  10  -5 800.095 921.797   9
   0  10  -4 329.956 849.797   9
   0  10  -3 2535.91 1175.63   9
   0  10  -2 4349.88 1391.62   9
   0  10  -1 8224.41 1917.38   9
   0  10   0 5459.53 1491.65   9
   0  10   1 671.548 861.350   9
   0  10   2 399.874 732.357   9
   0  10   2 1481.48 827.809   3
   0  10   3 1785.90 1022.96   9
   0  10   3 1666.53 911.582   3
   0  10   4 3320.76 1393.29   9
   0  10   4 3663.76 1273.23   3
   0  10   5 4843.45 1665.79   9
   0  10   5 6470.59 1684.37   3
   0  10   6 5571.21 1548.53   3
   0  10   7 3872.00 1243.81   8
   0  10   7 4544.03 1452.67   3
   0  10   8 1537.93 884.190   3
   0  10   9 2045.65 1221.22   3
   0  10  10 3347.16 1444.04   3
   0  10  11 242.345 654.265   3
   0  10  12 605.549 899.875   3
   0  10  13 1688.65 1147.75   3
   0  10  14 1826.42 1361.53   3
   0  10  15 537.346 1111.47   3
   0  10  16 1107.65 1082.50   3
   0  11 -11 607.187 633.500   9
   0  11 -10 1538.15 906.695   9
   0  11  -9 282.386 557.727   9
   0  11  -8 303.680 786.925   9
   0  11  -7 1586.24 1092.97   9
   0  11  -6 1006.75 853.963   9
   0  11  -5 1226.88 934.925   9
   0  11  -4 1191.48 881.550   9
   0  11  -3 711.571 711.968   9
   0  11  -2-322.958 748.584   9
   0  11  -1-146.634 795.424   9
   0  11   0 1957.36 1140.33   9
   0  11   1 2576.45 1239.59   9
   0  11   2 3522.83 1538.16   9
   0  11   3 5425.92 1777.47   9
   0  11   4 1194.85 966.540   9
   0  11   4 775.207 748.314   3
   0  11   5 1.10512 820.308   9
   0  11   5 883.633 728.908   3
   0  11   6-696.892 850.687   9
   0  11   6-133.095 677.408   3
   0  11   7 1278.90 1052.32   3
   0  11   8 3184.73 1424.53   3
   0  11   9 2812.82 1402.52   3
   0  11  10 23.9684 674.935   3
   0  11  11 1311.63 1019.22   3
   0  11  12 127.917 884.706   3
   0  11  13 1382.44 1055.50   3
   0  11  14 1256.01 1244.30   3
   0  12  -7 630.799 727.037   9
   0  12  -6 1993.86 1151.53   9
   0  12  -5-705.856 979.008   9
   0  12  -4 150.780 549.720   9
   0  12  -3 978.931 983.084   9
   0  12  -2 2184.14 1141.29   9
   0  12  -1 1816.35 1078.01   9
   0  12   0 1779.36 1112.03   9
   0  12   1 423.114 773.038   9
   0  12   2 2152.51 1230.01   9
   0  12   3-747.896 914.707   9
   0  12   4 2619.05 1630.03   9
   0  12   5 2251.27 1371.57   9
   0  12   6 1145.25 1141.57   9
   0  12   7 2170.85 1157.59   9
   0  12   7-625.179 826.287   3
   0  12   8 782.835 859.381   3
   0  12   8-102.609 881.134   9
   0  12   9-260.222 605.950   3
   0  12  10 726.506 893.910   3
   0  12  11 1637.88 1236.01   3
   0  13   0-922.130 695.050   9
   0  13   1 735.538 850.258   9
   0  13   2 2231.49 1376.72   9
   0  13   3 1168.28 764.544   9
   1 -12  -9 2321.76 1428.06   7
   1 -12  -8-2139.21 1166.30   7
   1 -12  -7 1786.93 1591.53   7
   1 -12  -6 1948.01 1216.05   7
   1 -12  -5 1486.89 1109.52   7
   1 -12  -4-232.438 742.145   7
   1 -12  -3 2584.97 1408.50   7
   1 -12  -2 2069.09 1606.67   7
   1 -12  -1 3153.02 1835.11   7
   1 -12   0 839.672 1483.87   7
   1 -12   1 300.974 641.755   7
   1 -12   2 1261.91 1544.65   7
   1 -12   3 2617.52 1508.01   7
   1 -11 -14-343.107 762.584   7
   1 -11 -13 1802.33 1110.37   7
   1 -11 -12-1322.11 1335.18   7
   1 -11 -11 1164.01 1206.36   7
   1 -11 -10 663.124 610.845   7
   1 -11  -9 1768.74 1005.64   7
   1 -11  -8 4652.44 1775.53   7
   1 -11  -7 1777.42 1198.56   7
   1 -11  -6 2272.82 1217.74   7
   1 -11  -5 1309.84 912.378   7
   1 -11  -4 1076.96 897.725   7
   1 -11  -3-166.107 918.076   7
   1 -11  -2 2055.49 1290.42   7
   1 -11  -1 2761.54 1365.62   7
   1 -11   0 944.352 1184.50   7
   1 -11   1 3594.12 1741.36   7
   1 -11   2 2480.56 1525.66   7
   1 -11   3-930.633 1291.81   7
   1 -11   4-2189.40 1263.28   2
   1 -11   4 3560.31 1718.79   7
   1 -11   5 707.054 950.485   2
   1 -11   5 1543.01 1166.94   7
   1 -11   6 233.683 946.871   2
   1 -11   7 46.1170 718.707   2
   1 -11   8 748.103 1029.19   2
   1 -10 -17 1345.25 852.634   7
   1 -10 -16 1855.56 955.565   7
   1 -10 -15 1153.84 866.929   7
   1 -10 -14 115.809 519.301   7
   1 -10 -13 369.813 892.046   7
   1 -10 -12 1770.61 892.461   7
   1 -10 -11 1704.04 1032.33   7
   1 -10 -10 3678.81 1497.23   7
   1 -10  -9 838.539 908.200   7
   1 -10  -8 1876.78 1251.25   7
   1 -10  -7-1202.72 775.211   7
   1 -10  -6 1097.45 815.789   7
   1 -10  -5 3633.13 1225.01   7
   1 -10  -4 6360.41 1803.02   7
   1 -10  -3 6068.66 1852.42   7
   1 -10  -2 1253.81 1004.09   7
   1 -10  -1-1419.89 1048.96   7
   1 -10   0 2026.96 1352.01   7
   1 -10   1 4288.03 1742.25   7
   1 -10   2 3331.51 1635.63   7
   1 -10   3 4610.66 1767.03   2
   1 -10   3 6370.73 2069.89   7
   1 -10   4 2341.58 1376.03   2
   1 -10   5 2315.58 1501.71   2
   1 -10   6 628.223 921.157   2
   1 -10   7-628.171 820.532   2
   1 -10   8 755.300 1176.58   2
   1 -10   9-1055.88 1069.52   2
   1 -10  10-241.778 1059.61   2
   1 -10  11 756.203 1298.48   2
   1  -9 -19 575.255 745.749   7
   1  -9 -18-658.566 647.822   7
   1  -9 -17 257.957 521.517   7
   1  -9 -16 1556.77 1046.94   7
   1  -9 -15 153.523 515.098   7
   1  -9 -14 1234.42 994.379   7
   1  -9 -13 614.538 400.572   7
   1  -9 -12 826.338 897.696   7
   1  -9 -11 343.215 545.236   7
   1  -9 -10 3281.99 1404.39   7
   1  -9  -9 4212.63 1337.52   7
   1  -9  -8 5679.35 1775.93   7
   1  -9  -7 5454.42 1523.37   7
   1  -9  -6 4756.02 1421.86   7
   1  -9  -5 928.070 716.866   7
   1  -9  -4 1741.45 1220.71   7
   1  -9  -3 706.423 999.407   7
   1  -9  -2 5490.72 1601.21   7
   1  -9  -1 7680.12 1883.32   7
   1  -9   0 8374.54 1952.61   7
   1  -9   1 4418.31 1557.19   7
   1  -9   2-282.651 1229.67   2
   1  -9   3-107.121 742.456   2
   1  -9   4 2154.68 1255.43   2
   1  -9   5 3096.62 1293.62   2
   1  -9   6 3807.64 1652.39   2
   1  -9   7 1656.42 934.552   2
   1  -9   8 1792.90 1262.62   2
   1  -9   9 1246.72 1104.36   2
   1  -9  10 1292.17 1119.87   2
   1  -9  11 773.471 1171.48   2
   1  -9  12 3.82235 867.476   2
   1  -9  13 1487.10 1221.59   2
   1  -9  14 995.339 1438.83   2
   1  -8 -20 477.002 530.318   7
   1  -8 -19 848.046 666.529   7
   1  -8 -18 211.548 448.695   7
   1  -8 -17 658.230 715.103   7
   1  -8 -16 257.895 607.952   7
   1  -8 -15-381.483 422.158   7
   1  -8 -14 976.221 876.271   7
   1  -8 -13 1317.63 773.647   7
   1  -8 -12 2190.42 990.426   7
   1  -8 -11 3982.27 1201.01   7
   1  -8 -10 4063.02 1241.04   7
   1  -8  -9 4457.08 1398.97   7
   1  -8  -8 1303.42 960.279   7
   1  -8  -7 415.681 856.826   7
   1  -8  -6 5478.66 1595.37   7
   1  -8  -5 19109.6 2661.24   7
   1  -8  -4 23544.7 2903.35   7
   1  -8  -3 17479.4 2538.35   7
   1  -8  -2 4768.07 1588.88   7
   1  -8  -1 1763.86 1055.07   7
   1  -8   0 9735.20 1990.46   7
   1  -8   0 10737.9 1382.22   6
   1  -8   1 15932.1 2601.66   7
   1  -8   1 16323.5 2462.59   2
   1  -8   1 12891.3 1512.31   6
   1  -8   2 12472.7 2262.26   2
   1  -8   2 11043.8 1495.06   6
   1  -8   3 8037.51 1999.77   2
   1  -8   3 8950.71 1393.22   6
   1  -8   4 4188.44 1451.79   2
   1  -8   4 5591.56 1144.55   6
   1  -8   5 1468.79 1096.07   2
   1  -8   5 2680.18 885.989   6
   1  -8   6 137.339 694.062   2
   1  -8   6-47.4130 527.293   6
   1  -8   7-529.436 717.170   2
   1  -8   7 1811.41 865.397   6
   1  -8   8 5386.63 1800.39   2
   1  -8   8 4789.69 1326.66   6
   1  -8   9 5895.87 1801.11   2
   1  -8   9 4203.66 1299.22   6
   1  -8  10 4088.77 1569.03   2
   1  -8  10 2430.19 1141.75   6
   1  -8  11 1010.47 1120.31   2
   1  -8  11 2560.90 1144.03   6
   1  -8  12 704.049 1170.51   2
   1  -8  12 888.343 1044.88   6
   1  -8  13 1281.25 912.386   2
   1  -8  13 1032.31 865.878   6
   1  -8  14 383.403 955.999   2
   1  -8  14 693.815 1083.79   6
   1  -8  15-1092.78 937.029   2
   1  -8  15-417.715 645.973   6
   1  -8  16 1104.88 972.459   2
   1  -8  16 1693.99 1456.75   6
   1  -8  17-1195.30 1180.33   2
   1  -8  17 162.124 1028.56   6
   1  -7 -20-131.184 435.921   7
   1  -7 -19-302.689 491.487   7
   1  -7 -18 387.640 655.731   7
   1  -7 -17-66.4265 385.423   7
   1  -7 -16 1370.24 863.369   7
   1  -7 -15 459.427 781.895   7
   1  -7 -14 1998.82 976.995   7
   1  -7 -13 1161.61 683.676   7
   1  -7 -12 786.084 612.901   7
   1  -7 -11 608.744 653.714   7
   1  -7 -10 3295.71 1082.76   7
   1  -7  -9 12678.5 2027.75   7
   1  -7  -8 17711.2 2367.30   7
   1  -7  -7 17769.0 2458.47   7
   1  -7  -6 846.023 484.518   7
   1  -7  -5-382.820 658.139   7
   1  -7  -4 1829.03 841.833   7
   1  -7  -4 991.518 460.086   6
   1  -7  -3 2287.28 916.909   7
   1  -7  -3 3282.99 672.921   6
   1  -7  -2 8310.53 1786.27   7
   1  -7  -2 11041.3 1266.03   6
   1  -7  -1 25080.8 2788.18   7
   1  -7  -1 20310.7 1796.10   6
   1  -7   0 29310.3 2912.12   2
   1  -7   0 27894.3 3009.47   7
   1  -7   0 30223.6 2214.06   6
   1  -7   1 20277.7 2486.16   2
   1  -7   1 23383.2 1995.71   6
   1  -7   2 4609.83 1073.63   2
   1  -7   2 7577.74 1183.71   6
   1  -7   3 452.429 762.219   2
   1  -7   3 1548.98 806.247   6
   1  -7   4 12783.8 2267.04   2
   1  -7   4 12256.4 1575.56   6
   1  -7   5 23474.4 2969.60   2
   1  -7   5 19371.2 2137.73   6
   1  -7   6 15880.5 2564.36   2
   1  -7   6 16494.1 2070.31   6
   1  -7   7 9034.90 1994.70   2
   1  -7   7 10308.6 1842.99   6
   1  -7   8 587.036 1009.99   2
   1  -7   8 3320.95 1255.02   6
   1  -7   9 271.669 1079.36   2
   1  -7   9 1628.93 1036.64   6
   1  -7  10 468.783 888.960   2
   1  -7  10 535.790 785.794   6
   1  -7  11 309.504 712.788   2
   1  -7  11 1826.84 1028.38   6
   1  -7  12 3707.30 1613.10   2
   1  -7  12 2969.57 1317.92   6
   1  -7  13 1998.06 1328.35   2
   1  -7  13 1906.18 1033.99   6
   1  -7  14 1220.50 1172.02   2
   1  -7  14 1853.47 1101.79   6
   1  -7  15 1068.65 1228.63   2
   1  -7  15 2618.71 1386.57   6
   1  -7  16 992.174 829.906   2
   1  -7  16 1613.59 1339.84   6
   1  -7  17 1507.33 1262.38   2
   1  -7  17 5150.19 2264.01   6
   1  -7  18 1152.74 1316.25   6
   1  -6 -21-250.063 559.104   7
   1  -6 -20 295.780 399.195   7
   1  -6 -19 421.594 503.761   7
   1  -6 -18 53.8709 448.800   7
   1  -6 -17 1301.54 841.673   7
   1  -6 -16 1662.76 906.030   7
   1  -6 -15 569.954 738.385   7
   1  -6 -14 819.974 827.041   7
   1  -6 -13 4132.48 1220.54   7
   1  -6 -12 8120.49 1492.37   7
   1  -6 -11 8619.36 1586.49   7
   1  -6 -10 6482.54 1376.59   7
   1  -6  -9 3253.34 1097.36   7
   1  -6  -8 915.227 800.209   7
   1  -6  -7 7005.94 1476.11   7
   1  -6  -6 19097.4 2252.26   7
   1  -6  -6 16745.8 796.118   4
   1  -6  -5 31939.1 1426.81   4
   1  -6  -5 37893.8 3195.20   7
   1  -6  -4 59138.2 3988.33   7
   1  -6  -4 55161.0 2944.13   6
   1  -6  -3 39469.2 3260.68   7
   1  -6  -3 38230.8 2374.71   6
   1  -6  -2 8785.02 1585.43   7
   1  -6  -2 6218.33 983.325   6
   1  -6  -1 2951.48 1057.40   7
   1  -6  -1 3269.37 763.440   6
   1  -6   0 29799.8 2686.63   2
   1  -6   0 28336.4 2784.30   7
   1  -6   0 24805.0 1945.34   6
   1  -6   1 36353.7 3212.61   2
   1  -6   1 37800.9 2478.88   6
   1  -6   2 47515.3 3689.19   2
   1  -6   2 45855.3 2870.81   6
   1  -6   3 34489.6 3225.71   2
   1  -6   3 31233.3 2410.80   6
   1  -6   4 15751.9 2264.58   2
   1  -6   4 13334.8 1687.69   6
   1  -6   5 1223.54 958.057   2
   1  -6   5 3585.50 990.106   6
   1  -6   6 2272.88 913.878   2
   1  -6   6 630.543 607.198   6
   1  -6   7 7567.49 1800.46   2
   1  -6   7 8399.19 1595.47   6
   1  -6   8 12830.8 2032.67   6
   1  -6   8 13703.2 2185.68   2
   1  -6   9 7167.81 1835.98   2
   1  -6   9 8357.89 1744.07   6
   1  -6  10 8269.01 2030.24   2
   1  -6  10 8551.82 1779.45   6
   1  -6  11 2798.76 1206.88   2
   1  -6  12 1309.51 961.486   2
   1  -6  13 250.515 695.621   2
   1  -6  14 1063.61 825.691   1
   1  -6  14 1765.04 1341.79   2
   1  -6  15 2164.81 1256.22   1
   1  -6  15 2098.19 1568.77   2
   1  -6  16-493.190 910.582   2
   1  -6  16 2286.63 1403.35   1
   1  -6  17-1832.75 1151.83   2
   1  -6  17 1176.95 1300.70   1
   1  -6  18 1217.77 1284.72   1
   1  -5 -21 42.0263 315.356   7
   1  -5 -20 316.557 464.038   7
   1  -5 -19-126.204 357.346   7
   1  -5 -18 250.049 383.388   7
   1  -5 -17 1308.85 795.741   7
   1  -5 -17 1587.86 902.107  10
   1  -5 -16 1967.81 1125.90  10
   1  -5 -16 2804.88 1119.74   7
   1  -5 -15 2115.73 970.494  10
   1  -5 -15 2867.19 1104.90   7
   1  -5 -14 3324.33 1003.41   7
   1  -5 -14 3314.35 1253.98  10
   1  -5 -13-285.070 691.457  10
   1  -5 -13 624.562 481.871   7
   1  -5 -12 96.8758 537.098  10
   1  -5 -12 422.535 615.740   7
   1  -5 -11 489.299 301.699   5
   1  -5 -11-150.407 465.331   7
   1  -5 -10 5999.36 660.753   4
   1  -5 -10 8193.73 1384.34   7
   1  -5 -10 6084.33 700.973   5
   1  -5  -9 18183.6 1071.61   4
   1  -5  -9 18647.1 1084.48   5
   1  -5  -8 23763.3 1096.69   4
   1  -5  -8 35474.4 2820.06   7
   1  -5  -7 40563.8 3067.78   7
   1  -5  -6 7803.36 1434.41   7
   1  -5  -5 3080.14 321.132   4
   1  -5  -5 4563.68 351.865   4
   1  -5  -5 3465.75 866.171   7
   1  -5  -5 4370.45 800.209   6
   1  -5  -4 6204.69 556.000   4
   1  -5  -4 7113.17 584.794   4
   1  -5  -4 8516.19 1346.04   7
   1  -5  -4 8240.71 1085.83   6
   1  -5  -3 45886.4 3239.55   7
   1  -5  -3 49611.0 2610.40   6
   1  -5  -2 77672.9 4340.18   7
   1  -5  -2 77148.3 3455.62   6
   1  -5  -1 76484.0 4382.66   7
   1  -5  -1 79368.9 3499.23   6
   1  -5   0 54644.8 3592.21   2
   1  -5   0 58552.4 2945.16   6
   1  -5   1 18765.8 2082.97   2
   1  -5   1 17622.5 1587.89   6
   1  -5   2 324.510 584.484   2
   1  -5   2 453.387 437.034   6
   1  -5   3 12191.8 1776.96   2
   1  -5   3 11368.8 1328.53   6
   1  -5   4 25986.0 2527.64   2
   1  -5   4 26412.4 2271.67   6
   1  -5   5 31120.5 2885.47   2
   1  -5   5 31416.0 2605.63   6
   1  -5   6 33940.4 3023.14   2
   1  -5   6 33330.4 2828.85   6
   1  -5   7 21283.5 2593.74   2
   1  -5   7 26894.5 2701.96   6
   1  -5   8 9848.75 1746.05   2
   1  -5   9 6482.36 1550.02   1
   1  -5   9 5389.35 1475.47   2
   1  -5  10 4172.37 1395.79   2
   1  -5  10 4155.12 1397.72   1
   1  -5  11 6727.12 1775.40   2
   1  -5  11 10893.2 2199.43   1
   1  -5  12 8278.96 1842.93   2
   1  -5  12 8356.54 1978.88   1
   1  -5  13 4154.10 1429.55   2
   1  -5  13 8428.54 2009.50   1
   1  -5  14 1463.01 1147.16   2
   1  -5  14 884.099 1093.56   1
   1  -5  15-44.2867 628.446   2
   1  -5  15 1405.36 1052.06   1
   1  -5  16 534.406 953.552   2
   1  -5  16-255.925 1020.84   1
   1  -5  17 1185.48 988.858   2
   1  -5  17 1049.94 823.554   1
   1  -5  18 2063.06 1097.17   1
   1  -5  19 752.560 1200.80   1
   1  -4 -21 972.896 640.360   7
   1  -4 -20 825.283 556.185   7
   1  -4 -19 171.438 522.430  10
   1  -4 -19 1600.37 808.663   7
   1  -4 -18 1307.81 860.303  10
   1  -4 -18 885.581 766.065   7
   1  -4 -17 1922.03 1006.52  10
   1  -4 -17 281.508 514.851   7
   1  -4 -16 903.073 627.705  10
   1  -4 -16 423.719 346.560   5
   1  -4 -16 1234.09 654.869   7
   1  -4 -15 801.815 498.497   5
   1  -4 -15-128.736 470.803  10
   1  -4 -15 825.526 617.429   7
   1  -4 -14 2535.74 794.860   5
   1  -4 -14 1597.99 500.723   4
   1  -4 -14 1798.29 972.330  10
   1  -4 -14 3498.43 1048.81   7
   1  -4 -13 7429.06 1559.03  10
   1  -4 -13 8672.91 1286.66   5
   1  -4 -13 8072.00 1099.05   4
   1  -4 -13 10541.4 1631.29   7
   1  -4 -12 13295.2 1967.13  10
   1  -4 -12 10454.4 1222.99   4
   1  -4 -12 14111.3 1779.27   7
   1  -4 -12 11543.1 1376.20   5
   1  -4 -11 15542.4 1355.58   4
   1  -4 -11 15521.8 1889.69   7
   1  -4 -11 14923.5 1462.74   5
   1  -4 -11 19222.2 2413.17  10
   1  -4 -10 7886.15 1511.54  10
   1  -4 -10 7366.18 848.141   4
   1  -4 -10 9306.91 1440.25   7
   1  -4 -10 8342.93 974.815   5
   1  -4  -9 494.355 220.766   5
   1  -4  -9 82.6732 154.391   4
   1  -4  -9-100.658 477.353   7
   1  -4  -9 143.645 466.292  10
   1  -4  -8 2301.18 420.083   5
   1  -4  -8 2376.94 375.209   4
   1  -4  -8 2622.78 754.708   7
   1  -4  -7 9107.38 621.088   4
   1  -4  -7 10046.0 706.603   5
   1  -4  -6 25980.6 2230.95   7
   1  -4  -5 96778.7 4566.25   7
   1  -4  -4 81269.5 4103.79   7
   1  -4  -4 83434.0 3602.14   6
   1  -4  -3 45676.6 2957.85   7
   1  -4  -3 50325.9 2488.02   6
   1  -4  -2 10675.3 787.323   4
   1  -4  -2 11811.7 1470.09   7
   1  -4  -2 12398.9 1157.51   6
   1  -4  -1 2512.41 867.402   7
   1  -4  -1 1686.04 428.663   6
   1  -4   0 32975.3 2503.16   2
   1  -4   0 36554.9 2135.40   6
   1  -4   1 98253.6 4621.34   2
   1  -4   1 89776.9 3788.74   6
   1  -4   2 154866. 6108.13   2
   1  -4   2 145095. 5353.58   6
   1  -4   3 95108.9 4280.83   6
   1  -4   3 106870. 4846.96   2
   1  -4   4 45771.3 3098.84   2
   1  -4   4 42522.4 2788.66   6
   1  -4   5 3484.89 913.057   2
   1  -4   5 4040.02 1075.52   6
   1  -4   6 8404.81 1353.26   2
   1  -4   7 30678.0 2899.86   1
   1  -4   7 28188.3 2757.48   2
   1  -4   8 32276.8 2985.33   2
   1  -4   8 35187.3 3211.35   1
   1  -4   9 25728.6 2725.21   2
   1  -4   9 25385.5 2816.75   1
   1  -4  10 11762.3 1932.66   2
   1  -4  10 11742.8 2039.51   1
   1  -4  11 1475.25 780.378   2
   1  -4  11 547.363 884.350   1
   1  -4  12 698.527 804.930   2
   1  -4  12 1138.93 924.859   1
   1  -4  13 109.777 711.151   2
   1  -4  13 468.776 640.153   1
   1  -4  14 1016.72 818.131   2
   1  -4  14 1295.92 815.582   1
   1  -4  15 2574.58 1233.91   2
   1  -4  15 351.658 1056.58   1
   1  -4  16 1891.11 1059.32   2
   1  -4  16 896.735 757.502   1
   1  -4  17-396.228 750.777   2
   1  -4  17 1879.21 1179.95   1
   1  -4  18-315.410 668.099   1
   1  -4  19 888.298 1158.45   1
   1  -4  20 3430.26 1647.26   1
   1  -3 -22 707.006 594.210   7
   1  -3 -21 922.749 648.721   7
   1  -3 -20 0.74574 362.772   7
   1  -3 -19-617.956 598.181   5
   1  -3 -19-897.108 610.793   7
   1  -3 -18 511.930 630.424   5
   1  -3 -18 1666.77 816.913   7
   1  -3 -18 186.345 677.289  10
   1  -3 -17 2205.05 971.896   5
   1  -3 -17 2123.05 773.379   7
   1  -3 -17 1811.39 897.102  10
   1  -3 -16 3188.28 991.324   5
   1  -3 -16 4034.81 1100.77   7
   1  -3 -16 4179.82 1216.99  10
   1  -3 -15 5112.83 1210.77   5
   1  -3 -15 6715.71 1365.99   7
   1  -3 -15 5846.16 1345.47  10
   1  -3 -14 4170.34 995.239   5
   1  -3 -14 3340.75 849.292   4
   1  -3 -14 5479.60 1349.85  10
   1  -3 -14 4310.38 1056.65   7
   1  -3 -13 1155.11 490.790   5
   1  -3 -13 1370.00 480.935   4
   1  -3 -13 1623.67 778.466   7
   1  -3 -13 2609.98 912.767  10
   1  -3 -12 1000.73 639.831   5
   1  -3 -12 1383.45 386.377   4
   1  -3 -12 1989.44 793.489   7
   1  -3 -12 1635.36 588.787  10
   1  -3 -11 3791.93 865.558   5
   1  -3 -11 3684.64 732.282   4
   1  -3 -11 2905.44 816.952   7
   1  -3 -11 4993.27 1146.97  10
   1  -3 -10 16180.2 1403.14   4
   1  -3 -10 19617.7 1941.44   7
   1  -3 -10 16846.7 1560.75   5
   1  -3 -10 20405.6 2174.71  10
   1  -3  -9 48642.3 2382.63   4
   1  -3  -9 55351.9 3249.31   7
   1  -3  -9 52016.5 2666.07   5
   1  -3  -9 57386.0 3696.36  10
   1  -3  -8 77893.2 3047.65   4
   1  -3  -8 91963.8 4187.66   7
   1  -3  -8 88018.2 3423.86   5
   1  -3  -8 90438.7 4524.76  10
   1  -3  -7 63746.5 2409.10   4
   1  -3  -7 76442.1 3687.83   7
   1  -3  -7 73043.8 2745.37   5
   1  -3  -7 74356.8 3931.03  10
   1  -3  -6 9564.62 626.626   4
   1  -3  -6 11770.1 1342.24   7
   1  -3  -6 10349.1 765.179   5
   1  -3  -5 217.198 422.108   7
   1  -3  -5 15.7182 106.703   5
   1  -3  -4 159437. 5743.96   7
   1  -3  -4 155857. 5387.57   6
   1  -3  -3 71385.4 2411.39   8
   1  -3  -3 76293.9 3546.89   7
   1  -3  -3 77894.0 3273.40   6
   1  -3  -2 120791. 3106.63   4
   1  -3  -2 110727. 3483.18   8
   1  -3  -2 115488. 4209.32   6
   1  -3  -2 118345. 4753.65   7
   1  -3  -1 129510. 3740.35   4
   1  -3  -1 124224. 4008.45   8
   1  -3  -1 141180. 5098.81   7
   1  -3  -1 139039. 4568.33   6
   1  -3   0 92462.8 3857.80   7
   1  -3   0 87171.8 3353.02   6
   1  -3   1 22544.0 1770.96   2
   1  -3   1 19380.5 1469.43   6
   1  -3   2 177.319 337.283   2
   1  -3   2 406.488 409.500   6
   1  -3   3 23392.1 1880.31   2
   1  -3   3 22765.4 1821.97   6
   1  -3   4 63870.6 3367.03   2
   1  -3   4 62628.9 3384.34   6
   1  -3   5 98379.9 4441.13   2
   1  -3   5 94863.9 4662.52   1
   1  -3   6 73334.3 4103.90   2
   1  -3   6 80313.3 4283.75   1
   1  -3   7 42071.6 2974.04   2
   1  -3   7 43520.7 3169.27   1
   1  -3   8 10980.6 1710.27   1
   1  -3   8 11885.4 1708.17   2
   1  -3   9 363.656 519.625   1
   1  -3   9 449.348 463.373   2
   1  -3  10 12924.9 2007.30   1
   1  -3  10 10933.4 1718.29   2
   1  -3  11 7860.91 1631.22   1
   1  -3  11 5757.90 1295.06   2
   1  -3  12 19835.8 2573.07   2
   1  -3  12 21935.1 2765.72   1
   1  -3  13 11604.7 2066.20   1
   1  -3  13 9592.71 1905.19   2
   1  -3  14 2612.36 1209.61   1
   1  -3  14 3322.02 1235.14   2
   1  -3  15-159.241 629.710   1
   1  -3  15 2060.01 1169.76   2
   1  -3  16 67.3893 692.421   1
   1  -3  16 1964.73 1137.59   2
   1  -3  17 686.834 1137.21   1
   1  -3  17 689.174 791.020   2
   1  -3  18-1152.14 821.975   1
   1  -3  19 2676.52 1623.51   1
   1  -3  20-1038.29 994.552   1
   1  -3  21 2281.67 1484.12   1
   1  -2 -22 460.573 640.917   5
   1  -2 -21-1275.19 851.907   5
   1  -2 -21 916.139 679.082   7
   1  -2 -20-67.4533 715.822   5
   1  -2 -20 1598.97 879.728   7
   1  -2 -19 442.768 840.627   5
   1  -2 -19 574.943 796.604   7
   1  -2 -18 79.5808 527.502   5
   1  -2 -18 672.477 624.969   7
   1  -2 -17 1134.62 995.964   5
   1  -2 -17 320.388 507.212   7
   1  -2 -17 369.949 446.094  10
   1  -2 -16 848.728 422.031   5
   1  -2 -16 230.573 493.197   7
   1  -2 -16 198.503 410.852  10
   1  -2 -15 344.642 563.970   5
   1  -2 -15-70.9289 501.729   7
   1  -2 -15 644.086 567.345  10
   1  -2 -14 2575.41 935.833   5
   1  -2 -14 2641.74 753.793   7
   1  -2 -14 2004.71 760.305  10
   1  -2 -13 12799.9 1699.84   7
   1  -2 -13 13727.7 1779.23   5
   1  -2 -13 13525.6 1753.36  10
   1  -2 -12 19866.2 1876.50   4
   1  -2 -12 23357.4 2192.45   7
   1  -2 -12 18875.4 2036.77  10
   1  -2 -12 19273.3 2037.53   5
   1  -2 -11 22622.7 1935.43   4
   1  -2 -11 28563.7 2394.52  10
   1  -2 -11 25444.9 2205.58   7
   1  -2 -11 22837.3 2136.20   5
   1  -2 -10 2853.88 726.931   5
   1  -2 -10 2405.04 509.206   4
   1  -2 -10 3766.81 869.150   7
   1  -2 -10 2941.66 747.616  10
   1  -2  -9 293.957 436.343   5
   1  -2  -9-197.220 334.168   4
   1  -2  -9 493.927 449.129   7
   1  -2  -9-154.738 319.676  10
   1  -2  -8 1444.98 477.398   5
   1  -2  -8 1292.35 376.411   4
   1  -2  -8 2105.28 606.841   7
   1  -2  -8 1664.58 643.040  10
   1  -2  -7 14727.8 1126.67   4
   1  -2  -7 16949.4 1555.33   7
   1  -2  -7 16029.0 1592.26  10
   1  -2  -7 16364.8 1302.43   5
   1  -2  -6 75350.2 3385.12   7
   1  -2  -6 71080.9 2792.83   5
   1  -2  -6 68419.7 3497.52  10
   1  -2  -5 125460. 4482.49   7
   1  -2  -5 110118. 3553.31   5
   1  -2  -4 74203.3 3182.27   7
   1  -2  -4 73584.4 3199.99   6
   1  -2  -4 66612.4 2227.33   5
   1  -2  -3 177435. 5582.54   7
   1  -2  -3 170680. 5353.01   6
   1  -2  -3 159722. 4107.92   5
   1  -2  -2 31020.1 1862.11   7
   1  -2  -2 31671.1 1817.50   6
   1  -2  -1 16921.7 758.865   4
   1  -2  -1 14845.9 769.218   8
   1  -2  -1 17256.4 1340.62   7
   1  -2  -1 14523.6 1156.37   6
   1  -2   0 134077. 3751.39   4
   1  -2   0 130812. 4458.88   7
   1  -2   0 125245. 4261.79   6
   1  -2   1 224592. 6306.09   4
   1  -2   1 242166. 6968.57   2
   1  -2   1 228820. 6678.01   6
   1  -2   2 200892. 6353.94   2
   1  -2   2 202667. 6329.02   6
   1  -2   3 117984. 4462.83   6
   1  -2   3 113497. 4194.69   2
   1  -2   4 72946.9 3283.66   2
   1  -2   4 68290.4 3389.83   1
   1  -2   5 3399.10 715.666   2
   1  -2   5 3498.46 835.397   1
   1  -2   6 8203.49 1265.96   1
   1  -2   6 7382.45 1021.07   2
   1  -2   7 44692.4 2767.08   2
   1  -2   7 41959.1 2883.37   1
   1  -2   8 60580.9 3422.87   2
   1  -2   8 63816.8 3675.57   1
   1  -2   9 45677.4 2991.05   2
   1  -2   9 44082.9 3246.07   1
   1  -2  10 22345.8 2257.97   2
   1  -2  10 23828.6 2386.29   1
   1  -2  11 6275.89 1268.13   1
   1  -2  11 4507.93 1050.51   2
   1  -2  12 3083.25 1091.80   1
   1  -2  12 3055.24 1005.73   2
   1  -2  13 2221.41 1043.41   1
   1  -2  13 2175.74 938.138   2
   1  -2  14 2552.76 1121.03   1
   1  -2  14 3724.81 1111.86   2
   1  -2  15 3122.28 1364.28   1
   1  -2  15 3124.10 1121.76   2
   1  -2  16 4164.92 1404.91   1
   1  -2  16 4165.31 1391.98   2
   1  -2  17 3400.55 1428.58   1
   1  -2  17 2373.64 1170.68   2
   1  -2  18-805.264 948.723   1
   1  -2  19 711.187 773.322   1
   1  -2  20 565.573 862.187   1
   1  -2  21-240.116 919.807   1
   1  -2  22-200.842 982.839   1
   1  -1 -24-121.130 660.889   5
   1  -1 -23-377.298 651.047   5
   1  -1 -22-140.388 873.950   5
   1  -1 -21-1570.65 951.911   5
   1  -1 -20 152.859 487.671   5
   1  -1 -19-382.491 669.443   5
   1  -1 -19-45.8049 366.225   7
   1  -1 -18-296.603 486.443   5
   1  -1 -18 724.421 525.274   7
   1  -1 -17 3083.71 1097.57   5
   1  -1 -17 3677.57 1120.85   7
   1  -1 -16 5507.60 1414.00   5
   1  -1 -16 6784.45 1353.78   7
   1  -1 -16 5274.29 1156.55  10
   1  -1 -15 6100.63 1512.95   5
   1  -1 -15 7386.25 1405.38   7
   1  -1 -15 6221.79 1159.40  10
   1  -1 -14 4277.20 1132.84   5
   1  -1 -14 3478.94 989.125   7
   1  -1 -14 4514.08 1064.79  10
   1  -1 -13 630.262 780.486   5
   1  -1 -13 2004.67 734.597   7
   1  -1 -13 1980.71 717.654  10
   1  -1 -12 296.407 522.432   5
   1  -1 -12 218.333 359.353   7
   1  -1 -12 114.389 374.786  10
   1  -1 -11 14280.4 1596.40   7
   1  -1 -11 15252.4 1855.24   5
   1  -1 -11 14081.1 1560.09  10
   1  -1 -10 16031.4 1637.50   7
   1  -1 -10 16842.5 1782.83   5
   1  -1 -10 13309.2 1477.24  10
   1  -1  -9 75179.1 3708.74   7
   1  -1  -9 76666.0 3815.11   5
   1  -1  -9 74145.9 3557.07  10
   1  -1  -8 93940.9 4106.64   7
   1  -1  -8 93506.6 4065.11   5
   1  -1  -8 91930.5 3913.07  10
   1  -1  -7 54631.2 2806.81   7
   1  -1  -7 51334.9 2724.88   5
   1  -1  -7 51503.2 2666.27  10
   1  -1  -6 11298.5 1147.17   7
   1  -1  -6 11075.9 1096.80   5
   1  -1  -6 10224.1 1029.40  10
   1  -1  -5 3432.14 561.092   5
   1  -1  -5 4698.32 731.924   7
   1  -1  -4 106080. 3680.45   7
   1  -1  -4 93398.5 3259.28   5
   1  -1  -3 29727.7 1607.78   7
   1  -1  -3 27068.1 1691.79   6
   1  -1  -3 26256.6 1287.51   5
   1  -1  -2 721732. 18562.0   7
   1  -1  -2 775545. 18000.6   5
   1  -1  -1 313514. 7918.92   7
   1  -1  -1 323987. 8074.88   6
   1  -1   0 134551. 3786.24   4
   1  -1   0 144440. 4173.54   7
   1  -1   0 134848. 4235.05   6
   1  -1   1 16397.4 1010.96   4
   1  -1   1 16100.1 1010.14   7
   1  -1   1 17441.5 1176.35   6
   1  -1   2 57125.5 2253.00   2
   1  -1   2 59483.8 2582.55   6
   1  -1   3 262376. 7089.28   2
   1  -1   3 256594. 7418.25   1
   1  -1   3 273609. 7787.96   6
   1  -1   4 263787. 7342.26   2
   1  -1   4 274975. 7752.14   1
   1  -1   5 114711. 4127.65   2
   1  -1   5 125159. 4506.41   1
   1  -1   6 33974.4 1954.05   2
   1  -1   6 36969.0 2261.03   1
   1  -1   7 8575.30 1045.34   2
   1  -1   7 8835.57 1173.74   1
   1  -1   8 1500.54 562.391   1
   1  -1   8 1066.83 460.203   2
   1  -1   9 1473.06 648.017   1
   1  -1   9 348.585 344.539   2
   1  -1  10 5229.54 1124.82   1
   1  -1  10 3855.28 840.450   2
   1  -1  11 15804.6 1679.06   2
   1  -1  11 15992.9 1962.15   1
   1  -1  12 35155.4 2686.95   2
   1  -1  12 39541.1 3189.37   1
   1  -1  13 6697.05 1523.22   1
   1  -1  13 7268.50 1264.71   2
   1  -1  14 4663.92 1289.54   1
   1  -1  14 5482.34 1237.13   2
   1  -1  15 1482.94 804.622   1
   1  -1  15 32.1744 444.999   2
   1  -1  16 1298.12 736.765   1
   1  -1  16 413.564 502.888   2
   1  -1  17 1292.15 913.124   1
   1  -1  17 890.780 783.744   2
   1  -1  18 2114.80 1258.52   1
   1  -1  19-731.136 812.941   1
   1  -1  20 330.861 760.059   1
   1  -1  21 3116.82 1416.48   1
   1  -1  22 3019.16 1548.22   1
   1   0 -23 1251.12 832.993   5
   1   0 -22 746.027 751.037   5
   1   0 -21-44.7293 773.838   5
   1   0 -20 137.395 741.177   5
   1   0 -19 616.158 549.045   5
   1   0 -18-1134.03 940.395   5
   1   0 -17-17.9493 608.834   5
   1   0 -16-166.584 640.424   5
   1   0 -16 1375.50 757.097   7
   1   0 -15 651.898 631.533   5
   1   0 -15 1426.46 749.331   7
   1   0 -15 1086.26 535.555  10
   1   0 -14 4696.89 1278.04   5
   1   0 -14 5823.67 1229.87   7
   1   0 -14 5301.49 991.478  10
   1   0 -13 12162.0 1870.14   5
   1   0 -13 11777.7 1621.86   7
   1   0 -13 10770.2 1314.17  10
   1   0 -12 13288.6 1790.08   5
   1   0 -12 13210.5 1635.25   7
   1   0 -12 13641.8 1419.98  10
   1   0 -11 14842.9 1713.46   7
   1   0 -11 15942.4 1930.58   5
   1   0 -11 14819.1 1393.34  10
   1   0 -10 5450.48 1147.66   5
   1   0 -10 4435.29 804.372   7
   1   0 -10 4069.57 697.222  10
   1   0  -9 9868.68 1417.40   5
   1   0  -9 9713.68 1008.93  10
   1   0  -9 9853.91 1271.60   7
   1   0  -8 9320.47 1243.91   5
   1   0  -8 9224.18 1159.85   7
   1   0  -8 8307.90 876.264  10
   1   0  -7 50511.4 2255.46  10
   1   0  -7 53111.3 2804.07   7
   1   0  -7 53368.3 3006.90   5
   1   0  -6 110454. 4090.33   7
   1   0  -6 102866. 4098.34   5
   1   0  -6 97160.1 3381.35  10
   1   0  -5 156504. 5022.86   7
   1   0  -5 141088. 5121.32   5
   1   0  -4 208400. 6053.45   7
   1   0  -4 198441. 6039.36   5
   1   0  -3 85071.9 2967.98   7
   1   0  -3 75000.7 2806.18   3
   1   0  -3 79561.3 2923.95   5
   1   0  -2 95561.1 3084.43   7
   1   0  -2 92740.3 3266.30   6
   1   0  -2 93243.0 3114.89   5
   1   0  -1 17833.5 866.366   8
   1   0  -1 19100.3 988.359   7
   1   0  -1 19137.1 1149.79   6
   1   0  -1 17652.1 1019.73   5
   1   0   0 32352.1 1540.85   6
   1   0   0 32953.3 1464.30   5
   1   0   1 33036.0 1560.77   4
   1   0   1 35493.8 1167.36   7
   1   0   1 36084.6 1635.40   6
   1   0   2 113162. 3459.72   9
   1   0   2 119281. 3812.81   4
   1   0   2 111525. 3249.12   1
   1   0   2 120714. 3791.76   6
   1   0   3 282405. 7004.71   2
   1   0   3 293677. 7510.10   1
   1   0   4 285598. 7087.74   2
   1   0   4 289009. 7581.26   1
   1   0   5 71400.8 2351.64   7
   1   0   5 78212.9 2554.32   2
   1   0   5 75082.8 2956.40   1
   1   0   6 3788.69 460.493   7
   1   0   6 4381.04 703.449   1
   1   0   6 4714.15 548.440   2
   1   0   7 109792. 3737.56   2
   1   0   7 110111. 4309.81   1
   1   0   8 180020. 5591.65   2
   1   0   8 175957. 6255.87   1
   1   0   9 119866. 4397.97   2
   1   0   9 121158. 5108.39   1
   1   0  10 34204.1 2189.94   2
   1   0  10 39338.9 2786.48   1
   1   0  11 2530.01 615.900   2
   1   0  11 2898.03 903.998   1
   1   0  12-96.4492 386.231   2
   1   0  12 595.763 522.787   1
   1   0  13 5157.11 985.900   2
   1   0  13 7400.15 1553.14   1
   1   0  14 2139.43 708.101   2
   1   0  14 2587.15 1044.24   1
   1   0  15 8399.71 1701.19   1
   1   0  15 5110.95 1157.69   2
   1   0  16 5768.21 1560.74   1
   1   0  16 4041.21 1105.40   2
   1   0  17 2347.09 1271.00   1
   1   0  18 1429.37 768.686   1
   1   0  19-840.598 742.755   1
   1   0  20 1887.81 1229.77   1
   1   0  21 2586.08 1314.03   1
   1   0  22-378.242 739.640   1
   1   0  23 2911.53 1631.09   1
   1   1 -23-397.672 707.522   5
   1   1 -22-619.995 811.965   5
   1   1 -21 429.510 575.607   5
   1   1 -20-830.950 1077.84   5
   1   1 -19 586.620 667.121   5
   1   1 -18 1463.47 1087.49   5
   1   1 -17 1422.71 851.792   5
   1   1 -16 2069.79 991.107   5
   1   1 -15 4070.01 1293.15   5
   1   1 -14 6441.35 1530.91   5
   1   1 -13 3158.02 1137.27   5
   1   1 -13 2726.26 658.751  10
   1   1 -12 1321.36 940.854   5
   1   1 -12 359.999 308.628  10
   1   1 -11 12313.1 1789.54   5
   1   1 -11 11229.6 1055.54  10
   1   1 -10 39164.3 2778.25   7
   1   1 -10 33422.4 1824.41  10
   1   1 -10 40619.5 3060.75   5
   1   1  -9 147393. 5805.63   7
   1   1  -9 138286. 4400.45  10
   1   1  -8 33791.1 2349.29   7
   1   1  -8 32677.0 1548.46  10
   1   1  -7 21189.3 1734.78   7
   1   1  -7 21905.5 1939.81   5
   1   1  -7 18491.8 996.321  10
   1   1  -6-152.452 266.859   5
   1   1  -6 372.776 242.065   3
   1   1  -6 357.632 416.885   7
   1   1  -6 105.531 89.1832  10
   1   1  -5 23765.2 1616.00   7
   1   1  -5 20713.3 1185.08   3
   1   1  -5 25166.9 1781.03   5
   1   1  -4 64215.4 2714.55   7
   1   1  -4 57766.6 2095.60   3
   1   1  -4 60318.6 2904.60   5
   1   1  -3 162199. 4952.57   7
   1   1  -3 159295. 5149.37   5
   1   1  -2 483699. 11996.0   7
   1   1  -2 466527. 11627.4   1
   1   1  -1 38801.2 1726.20   8
   1   1  -1 35178.9 1618.01   6
   1   1  -1 38559.7 1325.24   1
   1   1  -1 33798.3 1732.79   5
   1   1   0 451966. 10885.8   8
   1   1   0 424465. 10521.3   6
   1   1   0 429810. 10857.3   5
   1   1   1 5182.16 614.123   8
   1   1   1 5757.32 528.378   6
   1   1   1 5639.28 634.097   5
   1   1   2 149813. 4465.65   6
   1   1   2 161443. 3914.29   1
   1   1   3 280927. 6957.69   1
   1   1   4 197072. 4986.04   7
   1   1   4 217251. 5615.13   1
   1   1   5 101530. 2931.04   7
   1   1   5 103520. 3524.95   1
   1   1   6 32390.2 1397.70   7
   1   1   6 30004.9 1316.20   2
   1   1   6 32033.5 1861.30   1
   1   1   7 6484.41 645.062   2
   1   1   7 7627.55 982.766   1
   1   1   8 982.591 353.334   2
   1   1   8 1063.28 506.427   1
   1   1   9 591.905 274.924   2
   1   1   9 1125.30 524.153   1
   1   1  10 10901.1 1144.58   2
   1   1  10 12621.6 1565.96   1
   1   1  11 21859.3 1720.46   2
   1   1  11 24113.7 2199.17   1
   1   1  12 17342.5 1632.04   2
   1   1  12 18043.5 2044.95   1
   1   1  13 9294.39 1556.94   1
   1   1  13 9611.59 1307.05   2
   1   1  14 10185.4 1728.48   1
   1   1  14 8881.12 1372.17   2
   1   1  15 478.343 477.023   1
   1   1  15-267.185 329.665   2
   1   1  16-84.9623 416.354   2
   1   1  16-729.917 812.713   1
   1   1  17 775.047 479.322   1
   1   1  18 613.289 584.336   1
   1   1  19 953.030 806.149   1
   1   1  20-187.498 673.953   1
   1   1  21-160.119 563.019   1
   1   1  22-772.044 819.799   1
   1   1  23 575.546 870.129   1
   1   2 -22-692.526 831.170   5
   1   2 -21 770.644 1103.45   5
   1   2 -20 822.163 1009.43   5
   1   2 -19-1412.54 931.780   5
   1   2 -18-29.8462 783.666   5
   1   2 -17-130.973 762.071   5
   1   2 -16-106.821 582.048   5
   1   2 -15 126.369 477.368   5
   1   2 -14 4848.46 1459.31   5
   1   2 -13 8044.02 1609.15   5
   1   2 -12 11689.8 1912.09   5
   1   2 -11 10646.1 1765.99   5
   1   2 -10 4612.44 1175.28   5
   1   2  -9 1110.68 705.711   5
   1   2  -8 12508.2 896.786   3
   1   2  -8 16057.3 1856.04   5
   1   2  -7 6893.06 1131.95   5
   1   2  -7 7967.34 634.098   3
   1   2  -6 123400. 5133.74   5
   1   2  -5 214320. 7177.53   5
   1   2  -4 135677. 4202.37   9
   1   2  -4 136316. 5056.76   5
   1   2  -3 19921.0 1129.94   9
   1   2  -3 20376.4 1687.61   5
   1   2  -2 651.724 176.909   9
   1   2  -2 1539.30 498.065   8
   1   2  -2 1265.11 438.748   5
   1   2  -1 7904.40 680.927   9
   1   2  -1 9173.06 982.209   8
   1   2  -1 11008.8 785.587   1
   1   2  -1 8484.35 942.712   5
   1   2   0 312676. 8074.77   1
   1   2   0 319885. 7878.25   6
   1   2   0 311210. 8639.97   5
   1   2   1 272785. 7699.03   8
   1   2   1 287447. 7163.03   2
   1   2   1 259553. 6606.67   6
   1   2   1 272160. 7457.70   5
   1   2   2 284718. 7392.71   2
   1   2   2 277621. 7127.05   6
   1   2   2 302128. 8237.26   8
   1   2   3 149740. 5000.88   8
   1   2   3 141734. 4080.06   2
   1   2   3 151463. 4966.24   3
   1   2   3 141543. 4196.46   6
   1   2   4 32894.0 2089.78   3
   1   2   4 33121.4 1387.94   2
   1   2   5 903.799 229.410   2
   1   2   5 1510.70 360.163   7
   1   2   5 428.729 436.025   3
   1   2   6 37069.6 1807.04   7
   1   2   6 42448.5 2682.36   3
   1   2   7 87466.6 4171.51   3
   1   2   7 75517.9 3362.06   1
   1   2   8 110840. 4983.35   3
   1   2   8 97146.7 4157.30   1
   1   2   9 55286.6 3494.78   3
   1   2   9 48305.5 2885.52   1
   1   2  10 25988.9 2477.87   3
   1   2  10 21426.7 1976.61   1
   1   2  11 6064.14 1175.24   1
   1   2  12-888.957 505.056   2
   1   2  12-854.852 479.460   1
   1   2  13 3307.43 738.738   2
   1   2  13 3195.82 1014.38   1
   1   2  14 10537.2 1751.76   1
   1   2  14 8691.81 1232.27   2
   1   2  15 11344.6 1514.28   2
   1   2  15 15375.7 2194.29   1
   1   2  16 4341.53 1230.32   1
   1   2  17 1581.29 918.203   1
   1   2  18-699.989 744.632   1
   1   2  19-1623.24 786.239   1
   1   2  20-1016.13 964.655   1
   1   2  21-839.155 721.374   1
   1   2  22 1619.21 1175.96   1
   1   2  23 1836.15 1421.96   1
   1   3 -21-1261.98 1120.28   5
   1   3 -20 904.584 817.897   5
   1   3 -19 133.209 694.239   5
   1   3 -18 874.003 845.404   5
   1   3 -17 2289.98 1147.31   5
   1   3 -16 3090.39 1176.77   5
   1   3 -15 2421.80 1081.89   5
   1   3 -14 2078.77 803.572   5
   1   3 -13 723.035 624.467   5
   1   3 -12 735.604 564.951   5
   1   3 -11 12484.5 1958.85   5
   1   3 -10 27880.5 2782.85   5
   1   3  -9 42353.8 3302.87   5
   1   3  -8 16255.0 1923.65   5
   1   3  -7 51071.8 3185.61   5
   1   3  -7 28838.5 1158.20  10
   1   3  -6 904.900 625.446   5
   1   3  -6 716.717 395.089   9
   1   3  -6 372.126 127.301  10
   1   3  -5 11171.2 1102.17   9
   1   3  -5 10529.1 1415.77   5
   1   3  -5 8125.50 590.680  10
   1   3  -4 43743.9 2187.04   9
   1   3  -4 43913.1 2724.61   5
   1   3  -3 95770.2 3572.98   9
   1   3  -3 100578. 4207.58   5
   1   3  -2 141533. 4678.54   9
   1   3  -2 151960. 5321.86   5
   1   3  -1 162133. 5804.45   8
   1   3  -1 164038. 5141.66   9
   1   3  -1 161289. 5510.93   5
   1   3   0 191303. 6368.15   8
   1   3   0 187859. 6011.14   5
   1   3   1 8781.83 1063.10   8
   1   3   1 9189.36 920.580   3
   1   3   1 8382.75 937.900   5
   1   3   2 6065.25 898.932   8
   1   3   2 5550.24 816.526   3
   1   3   2 6010.43 791.856   5
   1   3   3 88126.7 3788.18   8
   1   3   3 84870.9 2565.31   6
   1   3   3 94842.2 3853.57   3
   1   3   4 176116. 6174.85   8
   1   3   4 178661. 6274.69   3
   1   3   5 157289. 5910.00   8
   1   3   5 167065. 6148.07   3
   1   3   6 89045.2 4241.05   8
   1   3   6 91267.3 4375.29   3
   1   3   7 27834.1 2486.10   3
   1   3   8-182.572 447.631   3
   1   3   9 13049.2 1788.91   3
   1   3  10 30226.5 2824.49   3
   1   3  10 22660.9 2016.97   1
   1   3  11 30187.7 2917.36   3
   1   3  11 23460.6 2244.45   1
   1   3  12 20479.8 2549.95   3
   1   3  12 17852.1 2084.34   1
   1   3  13 6411.38 1316.66   1
   1   3  13 9778.24 1806.90   3
   1   3  14 884.039 647.620   1
   1   3  14 628.973 758.883   3
   1   3  15 139.569 307.281   2
   1   3  15 253.001 491.746   1
   1   3  16 813.723 731.840   1
   1   3  17 1087.35 830.194   1
   1   3  18 173.332 633.217   1
   1   3  19 1955.60 1021.67   1
   1   3  20 887.012 894.237   1
   1   3  21 2417.96 1299.39   1
   1   3  22 111.909 838.492   1
   1   3  23-918.587 1105.33   1
   1   4 -21 548.900 1082.05   5
   1   4 -20 299.714 598.429   5
   1   4 -19 593.002 723.917   5
   1   4 -18 374.025 770.620   5
   1   4 -17-15.6784 602.103   5
   1   4 -16 664.977 794.434   5
   1   4 -15 1387.13 808.873   5
   1   4 -14 5881.69 1687.57   5
   1   4 -13 10748.7 2036.74   5
   1   4 -12 11477.0 1990.68   5
   1   4 -11 5976.92 1402.91   5
   1   4 -10 732.262 576.346   5
   1   4  -9 1147.01 661.056   5
   1   4  -8 8212.87 1146.82   9
   1   4  -8 6664.58 629.026  10
   1   4  -7 35721.1 2425.38   9
   1   4  -7 40839.4 3045.70   5
   1   4  -6 111182. 4477.35   9
   1   4  -6 131049. 5528.11   5
   1   4  -5 67330.6 3244.85   9
   1   4  -5 63927.9 3790.96   5
   1   4  -4 59099.6 2997.63   9
   1   4  -4 62689.0 3481.09   5
   1   4  -3 9882.79 1151.60   9
   1   4  -3 10355.4 1362.86   5
   1   4  -2 20568.6 1630.97   9
   1   4  -2 21398.0 1807.26   5
   1   4  -1 127098. 4899.43   9
   1   4  -1 142059. 5570.12   8
   1   4  -1 139127. 4327.40   3
   1   4  -1 134438. 5130.23   5
   1   4   0 204969. 7076.25   8
   1   4   0 203536. 6117.38   3
   1   4   0 194422. 6543.91   5
   1   4   1 72131.8 3542.11   8
   1   4   1 71187.5 3133.44   3
   1   4   1 65301.1 3104.57   5
   1   4   2 76179.5 3648.23   8
   1   4   2 73250.3 3373.72   3
   1   4   2 65573.3 3104.97   5
   1   4   3 26155.0 2022.14   8
   1   4   3 26927.2 2098.07   3
   1   4   4 6181.45 1107.55   8
   1   4   4 5956.50 482.316   6
   1   4   4 7080.35 1174.75   3
   1   4   5 1762.15 715.600   8
   1   4   5 1274.29 654.134   3
   1   4   6 19077.8 1899.26   8
   1   4   6 22980.3 2178.28   3
   1   4   7 48592.3 3214.09   8
   1   4   7 48880.3 3532.78   3
   1   4   8 60525.8 3767.03   8
   1   4   8 62201.7 4080.77   3
   1   4   9 38877.0 3110.16   8
   1   4   9 41247.4 3359.08   3
   1   4  10 22774.7 2566.58   3
   1   4  11 2325.13 1049.42   3
   1   4  12 1980.76 1003.28   3
   1   4  13 3794.45 1095.30   1
   1   4  13 7259.51 1692.64   3
   1   4  14 7958.46 1593.87   1
   1   4  14 10731.6 2164.77   3
   1   4  15 6374.69 1694.50   3
   1   4  15 6190.76 1425.17   1
   1   4  16 1441.82 834.224   1
   1   4  16 2430.67 1307.76   3
   1   4  17 1699.10 908.919   1
   1   4  18 842.051 795.658   1
   1   4  19 660.674 733.745   1
   1   4  20 639.293 795.224   1
   1   4  21-681.098 847.941   1
   1   4  22 475.178 1104.34   1
   1   4  23-1744.84 1264.90   1
   1   5 -20 479.565 630.244   5
   1   5 -19 665.508 1005.58   5
   1   5 -18-158.596 800.551   5
   1   5 -17 4256.08 1620.09   5
   1   5 -16 2123.62 1260.29   5
   1   5 -15 1019.89 999.669   5
   1   5 -14-118.344 597.167   5
   1   5 -13-1095.58 773.361   5
   1   5 -12-375.493 629.383   5
   1   5 -11 3895.99 1150.74   5
   1   5 -10 14812.5 2200.20   5
   1   5  -9 25538.3 2342.28   9
   1   5  -9 30633.9 3006.64   5
   1   5  -8 28053.8 2387.39   9
   1   5  -8 32887.8 2950.58   5
   1   5  -7 10899.2 1731.48   5
   1   5  -7 8686.28 1264.44   9
   1   5  -6 7089.80 1398.80   5
   1   5  -6 6554.76 1102.18   9
   1   5  -5 4689.40 914.225   9
   1   5  -5 4990.28 1149.60   5
   1   5  -4 34570.0 2452.45   9
   1   5  -4 31742.2 2574.78   5
   1   5  -3 49668.5 2958.05   9
   1   5  -3 49334.7 3144.25   5
   1   5  -2 65737.5 3486.01   9
   1   5  -2 61437.4 2547.11   3
   1   5  -2 67843.9 3605.78   5
   1   5  -1 58589.3 3321.96   9
   1   5  -1 69059.5 3871.65   8
   1   5  -1 63700.0 2816.67   3
   1   5  -1 64121.6 3404.68   5
   1   5   0 36265.5 2524.00   9
   1   5   0 43725.5 2949.64   8
   1   5   0 37201.6 2223.40   3
   1   5   0 38537.7 2458.14   5
   1   5   1 5792.98 1026.13   8
   1   5   1 6475.71 992.905   3
   1   5   1 6379.66 982.341   5
   1   5   2 1780.90 740.502   8
   1   5   2 870.418 521.236   3
   1   5   2 1044.01 469.858   5
   1   5   3 113806. 5035.07   8
   1   5   3 111576. 4875.18   3
   1   5   3 104678. 4385.34   5
   1   5   4 117445. 5216.73   8
   1   5   4 109108. 5116.71   3
   1   5   5 100944. 4703.38   8
   1   5   5 83497.3 2525.88   6
   1   5   5 81837.4 2486.88   6
   1   5   5 95266.7 4826.79   3
   1   5   6 46119.1 3157.89   8
   1   5   6 39803.7 1840.66   6
   1   5   6 46019.7 3372.71   3
   1   5   7 6692.20 1333.67   8
   1   5   7 12036.5 1940.59   3
   1   5   8 631.935 807.056   8
   1   5   8 649.282 767.056   3
   1   5   9 9062.47 1565.24   8
   1   5   9 11451.1 1879.89   3
   1   5  10 19179.6 2233.47   8
   1   5  10 19053.1 2600.70   3
   1   5  11 22791.7 2575.63   8
   1   5  11 23126.5 2985.97   3
   1   5  12 13504.7 2072.38   8
   1   5  12 15178.1 2413.12   3
   1   5  13 6823.56 1616.08   8
   1   5  13 5828.70 1498.56   3
   1   5  14 2001.63 1007.72   8
   1   5  14 1035.95 827.521   3
   1   5  14 1330.77 796.833   1
   1   5  15-102.458 521.889   1
   1   5  15 234.108 947.957   8
   1   5  15-202.115 724.362   3
   1   5  16 426.357 494.664   1
   1   5  16 299.963 698.212   3
   1   5  17 70.9378 568.833   3
   1   5  17 2110.97 1098.87   1
   1   5  18 905.286 588.608   1
   1   5  19 273.981 859.759   1
   1   5  20-171.114 642.962   1
   1   5  21 60.4648 915.644   1
   1   5  22-3261.89 1412.10   1
   1   5  23 392.626 828.809   1
   1   6 -19 406.399 717.099   5
   1   6 -18 1425.16 1275.48   5
   1   6 -17 125.407 647.354   5
   1   6 -16 901.542 1068.49   5
   1   6 -15 1176.49 934.904   5
   1   6 -14 4951.28 1654.29   5
   1   6 -13 9120.86 1986.65   5
   1   6 -12 5309.15 1645.64   5
   1   6 -11 2712.70 1173.89   5
   1   6 -10 84.3132 879.632   5
   1   6 -10 355.103 492.096   9
   1   6  -9 3218.29 1165.64   5
   1   6  -9 2626.36 949.513   9
   1   6  -8 9554.10 1667.82   5
   1   6  -8 9251.28 1510.74   9
   1   6  -7 13318.8 1718.52   9
   1   6  -7 15112.0 2088.82   5
   1   6  -6 19451.9 2030.24   9
   1   6  -6 20492.9 2260.10   5
   1   6  -5 24313.5 2271.78   9
   1   6  -5 27758.5 2617.50   5
   1   6  -4 32272.2 2607.24   9
   1   6  -4 33255.3 2759.37   5
   1   6  -3 148.687 463.825   9
   1   6  -3 228.845 416.584   5
   1   6  -2 8138.91 1286.71   9
   1   6  -2 8481.51 943.490   3
   1   6  -2 8240.23 1317.00   5
   1   6  -1 29481.1 2483.03   9
   1   6  -1 35990.1 2155.14   3
   1   6  -1 33332.9 2509.70   5
   1   6   0 52715.9 3451.47   9
   1   6   0 61796.4 3891.90   8
   1   6   0 57506.6 3064.50   3
   1   6   0 59802.4 3351.13   5
   1   6   1 68789.6 4065.92   8
   1   6   1 66713.1 3481.05   3
   1   6   1 64286.3 3433.55   5
   1   6   2 66881.0 3982.62   8
   1   6   2 67561.9 3668.86   3
   1   6   2 64515.6 3321.47   5
   1   6   3 12852.3 1646.07   8
   1   6   3 11918.3 1604.63   3
   1   6   3 11226.9 1287.97   5
   1   6   4 773.673 615.283   8
   1   6   4 671.482 610.531   3
   1   6   5 8621.33 1386.99   8
   1   6   5 8256.25 1438.55   3
   1   6   6 22313.6 2353.25   8
   1   6   6 25717.3 2541.65   3
   1   6   7 36272.1 3032.81   8
   1   6   7 35793.3 3232.22   3
   1   6   8 24594.5 2547.37   8
   1   6   8 23655.7 2784.04   3
   1   6   9 11840.3 1809.76   8
   1   6   9 14861.8 2274.06   3
   1   6  10 3336.15 1154.82   8
   1   6  10 6272.18 1548.41   3
   1   6  11 902.580 820.999   8
   1   6  11 262.947 571.714   3
   1   6  12 2394.04 1276.61   8
   1   6  12 2335.54 1219.09   3
   1   6  13 986.156 581.147   3
   1   6  13 3838.57 1328.32   8
   1   6  14 3056.18 1297.10   8
   1   6  14 4837.93 1754.57   3
   1   6  15 5349.03 1518.48   8
   1   6  15 4281.75 1593.17   3
   1   6  16 2628.35 1066.53   1
   1   6  16 3566.24 1410.99   8
   1   6  16 4125.45 1678.48   3
   1   6  17 1281.42 719.547   1
   1   6  17 1595.34 1016.02   3
   1   6  17 859.809 836.422   8
   1   6  18 1280.67 921.647   8
   1   6  18 34.7581 922.294   3
   1   6  18-1582.64 983.465   1
   1   6  19 658.415 773.191   8
   1   6  19 899.215 959.533   1
   1   6  20 159.239 503.077   1
   1   6  20 1273.52 1130.84   8
   1   6  21-1120.74 990.811   8
   1   6  21-1548.16 1050.68   1
   1   6  22-1309.05 1356.90   8
   1   6  22 1061.12 860.889   1
   1   7 -18 29.8404 642.035   5
   1   7 -17 262.891 905.078   5
   1   7 -16 486.336 699.057   5
   1   7 -15 1365.37 1006.17   5
   1   7 -14 1250.77 947.400   5
   1   7 -13 813.890 1026.34   5
   1   7 -12 1013.57 926.156   5
   1   7 -11 1610.31 705.106   9
   1   7 -11 2872.30 1157.01   5
   1   7 -10 5840.46 1308.51   9
   1   7 -10 10264.4 2002.56   5
   1   7  -9 9610.95 1586.66   9
   1   7  -9 10202.4 1864.16   5
   1   7  -8 5662.74 1271.97   9
   1   7  -8 6359.77 1536.59   5
   1   7  -7 675.041 354.371   9
   1   7  -7 1243.52 697.314   5
   1   7  -6 786.152 583.948   9
   1   7  -6 1036.72 789.286   5
   1   7  -5 2507.50 848.887   9
   1   7  -5 3747.28 1047.81   5
   1   7  -4 27786.9 2595.47   9
   1   7  -4 30251.0 2784.94   5
   1   7  -3 24302.1 2494.80   9
   1   7  -3 26739.9 2505.63   5
   1   7  -2 31926.4 2781.09   9
   1   7  -2 34511.9 2149.82   3
   1   7  -2 36182.7 2835.38   5
   1   7  -1 22564.6 2360.79   9
   1   7  -1 23652.5 1852.27   3
   1   7  -1 23804.6 2203.50   5
   1   7   0 5695.79 1297.23   9
   1   7   0 7212.87 1057.45   3
   1   7   0 5617.75 1071.60   5
   1   7   1 956.138 741.212   9
   1   7   1 1401.30 651.215   8
   1   7   1 1547.22 523.326   3
   1   7   1 1722.42 613.529   5
   1   7   2 19119.4 2202.63   8
   1   7   2 20420.2 2023.84   3
   1   7   2 16892.4 1720.75   5
   1   7   3 31675.5 2675.04   3
   1   7   3 30035.5 2310.25   5
   1   7   3 31619.3 2880.93   8
   1   7   4 22688.6 2519.16   8
   1   7   4 20704.6 2342.16   3
   1   7   5 30500.2 2837.52   8
   1   7   5 30486.5 2847.25   3
   1   7   6 17431.9 2124.65   8
   1   7   6 18194.0 2276.73   3
   1   7   7 6870.56 1531.50   8
   1   7   7 7602.50 1613.95   3
   1   7   8 96.0719 419.137   8
   1   7   8 359.882 724.550   3
   1   7   9 6280.65 1603.74   8
   1   7   9 4589.87 1372.10   3
   1   7  10 16742.7 2316.76   8
   1   7  10 15824.1 2595.91   3
   1   7  11 17098.7 2385.16   8
   1   7  11 18380.7 2824.46   3
   1   7  12 8293.42 1805.53   8
   1   7  12 7687.56 1860.17   3
   1   7  13 2668.56 1127.15   8
   1   7  13 2939.07 1340.66   3
   1   7  14-44.0898 583.750   8
   1   7  14 333.604 851.189   3
   1   7  15 1123.42 1066.10   8
   1   7  15 406.462 722.340   3
   1   7  16 1423.11 950.935   8
   1   7  16 499.671 919.054   3
   1   7  17 952.654 870.238   8
   1   7  17 1215.92 1057.64   3
   1   7  17 2693.08 1146.19   1
   1   7  18 554.406 769.711   8
   1   7  18 761.488 822.804   3
   1   7  18-104.970 702.475   1
   1   7  19 85.2372 462.985   1
   1   7  19 927.385 908.680   8
   1   7  19-22.3182 827.564   3
   1   7  20 1142.63 1056.61   8
   1   7  20 2236.29 1185.56   1
   1   7  21-1720.88 1092.19   1
   1   7  22 13.6450 819.760   1
   1   8 -16-1609.30 1037.05   5
   1   8 -15 1365.98 1209.60   5
   1   8 -14 1259.01 1008.54   5
   1   8 -13 2397.43 1287.03   5
   1   8 -12 2010.46 1316.98   5
   1   8 -11 363.591 610.960   9
   1   8 -11 449.579 803.530   5
   1   8 -10-450.508 533.300   9
   1   8 -10 571.613 732.374   5
   1   8  -9-199.186 453.603   9
   1   8  -9 849.816 707.366   5
   1   8  -8 2561.27 1065.21   9
   1   8  -8 5224.52 1377.39   5
   1   8  -7 6791.10 1496.59   9
   1   8  -7 12195.5 1976.67   5
   1   8  -6 15090.6 2076.85   9
   1   8  -6 16006.4 2196.90   5
   1   8  -5 12119.2 1873.83   9
   1   8  -5 13101.2 1940.48   5
   1   8  -4 2222.32 858.266   9
   1   8  -4 3513.55 1023.13   5
   1   8  -3 723.927 558.699   9
   1   8  -3 646.753 392.790   5
   1   8  -2 3062.12 1037.13   9
   1   8  -2 2933.82 852.093   5
   1   8  -1 12676.8 1481.53   3
   1   8  -1 13974.3 1976.36   9
   1   8  -1 15136.5 1896.92   5
   1   8   0 18002.5 2300.59   9
   1   8   0 20941.9 1969.45   3
   1   8   0 20956.2 2120.22   5
   1   8   1 18120.5 2340.04   9
   1   8   1 20592.4 2082.75   3
   1   8   1 23072.0 2106.72   5
   1   8   2 9605.49 1808.25   9
   1   8   2 16061.3 2158.77   8
   1   8   2 14089.6 1815.42   3
   1   8   2 14267.7 1635.66   5
   1   8   3 7964.65 1581.41   8
   1   8   3 4979.30 1187.15   3
   1   8   3 5278.44 1072.78   5
   1   8   4 1832.13 884.913   8
   1   8   4 24.7508 424.413   3
   1   8   5 3965.23 1336.08   8
   1   8   5 3089.37 1044.98   3
   1   8   6 14687.7 2163.84   8
   1   8   6 15453.6 2208.47   3
   1   8   7 15616.2 2334.27   8
   1   8   7 16345.7 2327.42   3
   1   8   8 11600.6 1905.67   8
   1   8   8 12205.9 2123.14   3
   1   8   9 4315.44 1252.00   8
   1   8   9 3767.83 1335.47   3
   1   8  10 489.767 726.762   8
   1   8  10 1322.30 1156.35   3
   1   8  11 57.3469 545.190   8
   1   8  11 455.080 836.431   3
   1   8  12 84.6526 503.507   8
   1   8  12 1956.66 1091.75   3
   1   8  13 2140.48 1100.22   8
   1   8  13 1560.79 1226.16   3
   1   8  14 2365.27 1202.90   8
   1   8  14 2151.07 1373.09   3
   1   8  15 3475.51 1312.86   8
   1   8  15 1578.85 1062.60   3
   1   8  16 1610.83 917.978   8
   1   8  16 2313.82 1142.36   3
   1   8  17 251.369 662.201   8
   1   8  17-1128.93 953.952   3
   1   8  18-550.643 718.482   8
   1   8  18-2154.37 1043.78   3
   1   8  18-291.715 747.233   1
   1   8  19-342.568 1033.05   3
   1   8  19 984.028 719.372   1
   1   8  20-778.490 728.729   1
   1   8  21-756.067 795.319   1
   1   9 -15 518.511 756.397   5
   1   9 -14-336.359 641.759   5
   1   9 -13 1159.64 1056.36   5
   1   9 -12 12.3094 414.212   9
   1   9 -12 645.030 596.790   5
   1   9 -11-65.5592 615.641   9
   1   9 -11 333.348 718.847   5
   1   9 -10-151.570 448.775   9
   1   9 -10 2395.01 1134.46   5
   1   9  -9 2049.19 1018.77   9
   1   9  -9 1374.96 872.806   5
   1   9  -8 1408.85 770.796   9
   1   9  -8 529.097 748.900   5
   1   9  -7-122.599 582.451   9
   1   9  -7 1134.73 781.838   5
   1   9  -6-158.945 541.358   9
   1   9  -6 349.673 571.127   5
   1   9  -5 2147.17 1018.04   9
   1   9  -5 2511.14 964.486   5
   1   9  -4 4126.88 1215.63   9
   1   9  -4 7773.97 1633.55   5
   1   9  -3 6755.05 1537.95   9
   1   9  -3 6136.02 1315.48   5
   1   9  -2 14134.6 2128.72   9
   1   9  -2 15854.1 2060.43   5
   1   9  -1 8533.36 1716.65   9
   1   9  -1 6204.54 1232.62   5
   1   9   0 1086.56 667.311   9
   1   9   0 1863.61 672.480   3
   1   9   0 323.865 400.124   5
   1   9   1 991.484 869.269   9
   1   9   1 1488.92 722.165   3
   1   9   1 1146.83 558.241   5
   1   9   2 6554.39 1590.26   9
   1   9   2 5912.95 1219.54   3
   1   9   2 5795.57 1149.93   5
   1   9   3 9596.20 1955.48   9
   1   9   3 12781.3 2129.05   8
   1   9   3 11802.3 1787.41   3
   1   9   4 12579.1 2121.85   8
   1   9   4 14176.1 2028.21   3
   1   9   5 13093.1 2122.45   8
   1   9   5 9669.29 1812.60   3
   1   9   6 2742.81 1073.93   8
   1   9   6 3293.72 1075.46   3
   1   9   7 1364.25 806.190   8
   1   9   7 1257.19 980.888   3
   1   9   8 198.872 498.611   8
   1   9   8 1069.98 651.688   3
   1   9   9 944.445 684.079   8
   1   9   9 3904.56 1332.02   3
   1   9  10 3227.05 1259.77   8
   1   9  10 5150.40 1673.36   3
   1   9  11 4235.26 1379.41   8
   1   9  11 6163.58 1788.42   3
   1   9  12 3301.42 1181.46   8
   1   9  12 2267.28 1163.67   3
   1   9  13 1211.70 739.882   8
   1   9  13 1404.65 904.359   3
   1   9  14 1593.80 940.696   8
   1   9  14-232.393 940.178   3
   1   9  15 1373.89 835.161   8
   1   9  15 551.519 900.555   3
   1   9  16 452.923 972.271   3
   1   9  17-324.014 992.466   3
   1   9  18 245.164 684.221   3
   1   9  19 215.644 731.097   1
   1  10 -13 1004.27 1025.77   5
   1  10 -12 98.4032 482.027   9
   1  10 -12 176.221 941.998   5
   1  10 -11 570.318 631.713   9
   1  10 -11-620.352 734.772   5
   1  10 -10-332.884 627.234   9
   1  10 -10 436.296 696.154   5
   1  10  -9 600.341 606.952   9
   1  10  -9 46.0722 516.107   5
   1  10  -8 1970.42 1074.41   9
   1  10  -8 2580.84 1261.29   5
   1  10  -7 2763.11 1013.19   9
   1  10  -7 3930.85 1340.91   5
   1  10  -6 3047.54 1117.30   9
   1  10  -6 2403.20 1003.86   5
   1  10  -5 2307.13 1104.73   9
   1  10  -5 2438.83 988.841   5
   1  10  -4 10.3050 643.471   9
   1  10  -4 1451.88 790.817   5
   1  10  -3 93.9605 420.557   9
   1  10  -2 796.350 868.874   9
   1  10  -1 3549.89 1217.99   9
   1  10   0 3371.81 1237.27   9
   1  10   1 5989.05 1606.86   9
   1  10   2 2555.36 1145.81   9
   1  10   3 3005.63 1216.97   9
   1  10   3 1822.34 731.751   3
   1  10   4-530.338 755.180   9
   1  10   4-766.861 845.510   8
   1  10   4 533.799 659.884   3
   1  10   5 2784.48 1073.30   8
   1  10   5 486.822 452.840   3
   1  10   6 5232.34 1459.76   8
   1  10   6 3912.89 1240.00   3
   1  10   7 5634.34 1511.70   8
   1  10   7 5685.22 1552.93   3
   1  10   8 4163.34 1378.61   8
   1  10   8 3852.14 1373.72   3
   1  10   9 954.992 798.792   8
   1  10   9 3714.12 1299.69   3
   1  10  10 854.049 875.261   8
   1  10  10 854.762 804.829   3
   1  10  11 1316.77 861.625   8
   1  10  11 235.008 701.495   3
   1  10  12 813.444 836.374   8
   1  10  12-305.667 711.660   3
   1  10  13 1859.42 1043.90   3
   1  10  14-42.8000 895.708   3
   1  10  15 537.139 1032.54   3
   1  10  16-407.683 709.514   3
   1  11 -10 902.772 783.354   9
   1  11  -9 42.0954 629.094   9
   1  11  -8-12.6621 468.112   9
   1  11  -7 717.681 612.682   9
   1  11  -6-275.325 641.170   9
   1  11  -5 1195.53 742.896   9
   1  11  -4 1104.09 945.137   9
   1  11  -3 3062.78 1252.53   9
   1  11  -2 1880.42 909.322   9
   1  11  -1 454.605 560.027   9
   1  11   0 360.972 545.608   9
   1  11   1 490.519 884.374   9
   1  11   2 3002.12 1275.93   9
   1  11   3 2193.34 1072.19   9
   1  11   4 1121.52 794.787   9
   1  11   5 1581.15 995.403   9
   1  11   5-85.7538 572.249   3
   1  11   6-701.059 754.625   8
   1  11   6 727.355 733.945   3
   1  11   7 3124.90 1416.81   8
   1  11   7-1791.41 984.506   3
   1  11   8 969.367 977.444   8
   1  11   8-387.000 595.556   3
   1  11   9 3197.79 1449.84   8
   1  11   9-385.872 884.905   3
   1  11  10 798.437 790.128   3
   1  11  11 715.698 809.372   3
   1  11  12-395.867 645.201   3
   1  11  13 575.832 820.031   3
   1  11  14-710.779 998.080   3
   1  12  -7 863.609 766.372   9
   1  12  -6 1275.70 900.109   9
   1  12  -5-68.2319 605.115   9
   1  12  -4 395.370 750.676   9
   1  12  -3 18.9904 553.498   9
   1  12  -2 611.154 850.321   9
   1  12  -1 2376.15 1154.95   9
   1  12   0-127.511 652.133   9
   1  12   1 1113.38 815.938   9
   1  12   2 3496.95 1409.19   9
   1  12   3 578.248 731.587   9
   1  12   4 859.187 1024.32   9
   1  12   5 863.804 1054.56   9
   1  12   6 1635.14 1304.06   9
   1  12   7 2240.94 1340.56   9
   1  12   8 625.400 763.014   3
   1  12   9 1532.86 915.880   3
   1  12  10-2502.51 1239.12   3
   1  12  11 825.288 956.122   3
   1  12  12-276.068 877.027   3
   1  13  -3 991.371 893.761   9
   1  13  -2 920.197 825.296   9
   1  13  -1 981.156 800.501   9
   1  13   0-281.158 637.579   9
   1  13   1-210.701 750.186   9
   1  13   2 760.189 807.546   9
   1  13   3 1853.81 1092.94   9
   1  13   4 1771.37 1328.06   9
   1  13   5 1117.31 1071.08   9
   1  13   6 657.953 876.321   9
   1  13   7 2136.56 1570.68   9
   2 -11 -11 247.233 876.102   7
   2 -11 -10-1297.41 1164.66   7
   2 -11  -9 585.992 1028.83   7
   2 -11  -8 656.596 1006.87   7
   2 -11  -7 1430.95 968.323   7
   2 -11  -6 1840.76 1428.66   7
   2 -11  -5 1767.60 1240.77   7
   2 -11  -4-1154.15 1296.75   7
   2 -11  -3-391.013 892.772   7
   2 -11  -2 927.011 991.051   7
   2 -11  -1 149.342 988.405   7
   2 -11   0 1358.72 1045.02   7
   2 -11   1-533.499 594.296   7
   2 -11   2 915.370 852.718   7
   2 -11   3 1074.08 1025.78   7
   2 -11   4 2310.38 1677.01   7
   2 -11   5 1825.20 1157.72   7
   2 -11   6 1395.09 1345.17   7
   2 -11   7 1513.84 1203.35   7
   2 -10 -14-1173.03 901.133   7
   2 -10 -13 542.653 709.182   7
   2 -10 -12 346.509 914.689   7
   2 -10 -11-70.8254 811.409   7
   2 -10 -10 1407.62 894.783   7
   2 -10  -9 2856.80 1489.81   7
   2 -10  -8 2161.01 1093.79   7
   2 -10  -7 1176.13 778.505   7
   2 -10  -6 804.803 1120.87   7
   2 -10  -5-683.634 866.595   7
   2 -10  -4 1219.70 809.183   7
   2 -10  -3 2717.01 1421.94   7
   2 -10  -2 2963.20 1310.32   7
   2 -10  -1 626.497 936.070   7
   2 -10   0 909.207 923.436   7
   2 -10   1-1273.32 1267.11   7
   2 -10   2 997.484 1128.05   7
   2 -10   3 1947.89 1331.40   7
   2 -10   4 2895.17 1404.10   7
   2 -10   5 5248.92 1958.47   7
   2 -10   6 3386.20 1644.90   7
   2 -10   7 1825.35 1365.44   7
   2 -10   8 510.224 1077.56   2
   2 -10   8 1093.81 1170.23   7
   2 -10   9 684.648 962.233   2
   2 -10   9 375.275 870.124   7
   2 -10  10-3623.55 1646.93   2
   2  -9 -17-170.142 693.237   7
   2  -9 -16 310.113 831.720   7
   2  -9 -15-231.093 665.838   7
   2  -9 -14 931.428 1070.91   7
   2  -9 -13 1695.65 1090.12   7
   2  -9 -12 848.626 935.699   7
   2  -9 -11-418.477 524.545   7
   2  -9 -10-656.790 703.411   7
   2  -9  -9 1130.20 948.530   7
   2  -9  -8 4135.77 1578.80   7
   2  -9  -7 5315.70 1686.59   7
   2  -9  -6 4099.15 1510.19   7
   2  -9  -5 3172.63 1422.45   7
   2  -9  -4 1073.05 764.829   7
   2  -9  -3 935.003 829.982   7
   2  -9  -2 2140.74 1059.33   7
   2  -9  -1 3984.92 1455.50   7
   2  -9   0 7008.28 1828.78   7
   2  -9   1 6294.37 1791.53   7
   2  -9   2 880.340 819.929   7
   2  -9   3 1884.20 1165.84   7
   2  -9   4 1033.76 770.932   7
   2  -9   5 663.023 1043.90   7
   2  -9   6 790.333 891.298   2
   2  -9   6 1408.09 1015.76   7
   2  -9   7 1197.74 787.746   2
   2  -9   8 1303.11 949.413   2
   2  -9   9 2057.24 1349.36   2
   2  -9  10-524.039 1105.42   2
   2  -9  11-927.859 996.013   2
   2  -9  12-2981.31 1493.13   2
   2  -9  13-812.135 1206.60   2
   2  -9  14-686.968 979.921   2
   2  -8 -19 1629.63 1080.05   7
   2  -8 -18 1147.01 1014.33   7
   2  -8 -17-444.023 470.105   7
   2  -8 -16 1353.81 859.143   7
   2  -8 -15 1140.70 749.627   7
   2  -8 -14 837.763 666.372   7
   2  -8 -13-597.584 448.725   7
   2  -8 -12 1484.04 741.023   7
   2  -8 -11 945.371 804.390   7
   2  -8 -10 2505.95 1210.78   7
   2  -8  -9 5927.71 1609.85   7
   2  -8  -8 2103.66 885.771   7
   2  -8  -7 1362.94 917.304   7
   2  -8  -6 226.368 967.172   7
   2  -8  -5 4462.64 1483.49   7
   2  -8  -5 2888.23 856.533   6
   2  -8  -4 4491.96 1355.44   7
   2  -8  -4 6385.15 1231.94   6
   2  -8  -3 7367.04 1887.94   7
   2  -8  -3 6245.01 1217.84   6
   2  -8  -2 5721.83 1563.60   7
   2  -8  -2 8012.86 1370.50   6
   2  -8  -1 5384.19 1443.91   7
   2  -8  -1 4832.16 1117.79   6
   2  -8   0 3144.98 1268.38   7
   2  -8   0 4083.39 1069.58   6
   2  -8   1 585.050 912.983   7
   2  -8   1 977.084 543.670   6
   2  -8   2 2813.64 1365.86   7
   2  -8   2 2228.13 868.121   6
   2  -8   3 8385.09 2011.14   7
   2  -8   3 7477.53 1495.90   6
   2  -8   4 11193.9 2353.20   7
   2  -8   4 10821.3 1827.77   6
   2  -8   5 9196.71 2112.10   2
   2  -8   5 11309.8 2389.10   7
   2  -8   5 11635.9 1921.10   6
   2  -8   6 794.396 691.763   2
   2  -8   6 1928.72 1020.30   6
   2  -8   7 1587.60 1187.36   2
   2  -8   7 925.966 749.395   6
   2  -8   8 293.691 856.340   2
   2  -8   8 54.7618 582.616   6
   2  -8   9 1167.60 1151.39   2
   2  -8   9 1011.82 853.643   6
   2  -8  10 1188.21 770.352   2
   2  -8  10 3694.75 1372.82   6
   2  -8  11 529.602 845.126   2
   2  -8  11 216.764 767.238   6
   2  -8  12 461.458 1016.97   2
   2  -8  12 461.045 746.465   6
   2  -8  13 1312.33 1209.67   2
   2  -8  13-21.6173 529.287   6
   2  -8  14-689.475 847.293   2
   2  -8  14 485.210 1041.88   6
   2  -8  15 761.782 844.310   2
   2  -8  15-103.840 735.316   6
   2  -8  16-84.8959 671.608   6
   2  -7 -20 606.517 844.193   7
   2  -7 -19 570.283 639.525   7
   2  -7 -18-310.733 532.106   7
   2  -7 -17 617.039 766.373   7
   2  -7 -16 1949.55 919.603   7
   2  -7 -15 1705.09 960.509   7
   2  -7 -14 3249.63 1176.19   7
   2  -7 -13 3796.36 1366.75   7
   2  -7 -12 1765.57 906.276   7
   2  -7 -11 797.594 625.372   7
   2  -7 -10-243.286 555.502   7
   2  -7  -9 1067.17 710.870   7
   2  -7  -8 4459.36 1360.29   7
   2  -7  -7 7124.74 1586.46   7
   2  -7  -6 11540.1 2051.85   7
   2  -7  -6 12800.5 1744.31   6
   2  -7  -5 13308.3 2195.46   7
   2  -7  -5 12509.9 1730.61   6
   2  -7  -4 5909.25 1409.49   7
   2  -7  -4 5612.91 1117.55   6
   2  -7  -3-387.546 610.122   7
   2  -7  -3-248.186 399.679   6
   2  -7  -2 5367.87 1386.36   7
   2  -7  -2 7196.82 1263.94   6
   2  -7  -1 19451.9 2691.70   7
   2  -7  -1 23926.7 2344.32   6
   2  -7   0 25170.1 2968.97   7
   2  -7   0 22674.3 2300.35   6
   2  -7   1 12631.9 2132.73   7
   2  -7   1 13229.5 1812.38   6
   2  -7   2 3787.86 1242.90   7
   2  -7   2 4202.82 1008.38   6
   2  -7   3 1325.45 885.860   7
   2  -7   3 104.995 383.778   6
   2  -7   4 1224.22 802.887   2
   2  -7   4 1534.62 990.653   7
   2  -7   4 720.711 640.438   6
   2  -7   5 784.840 613.903   2
   2  -7   5 3301.27 1207.48   6
   2  -7   6 3074.37 1266.81   2
   2  -7   6 1210.81 686.586   6
   2  -7   7 4450.52 1406.92   2
   2  -7   7 3504.93 1115.45   6
   2  -7   8 5882.54 1623.07   2
   2  -7   8 7466.55 1615.61   6
   2  -7   9 4787.46 1580.31   2
   2  -7   9 5897.53 1577.81   6
   2  -7  10 1109.86 1009.51   2
   2  -7  10 1054.09 802.787   6
   2  -7  11 141.767 833.843   2
   2  -7  11 554.585 1082.79   6
   2  -7  12 1767.84 1233.65   2
   2  -7  12-104.395 687.713   6
   2  -7  13 1279.61 1294.73   2
   2  -7  13 1322.59 973.366   6
   2  -7  14 677.534 935.423   2
   2  -7  14 1566.43 1313.14   6
   2  -7  15 576.132 691.696   2
   2  -7  15-553.603 856.001   6
   2  -7  16 3346.94 1764.92   6
   2  -7  17 818.159 1089.93   6
   2  -6 -21 114.926 537.451   7
   2  -6 -20 875.877 898.253   7
   2  -6 -19 1513.58 1155.63   7
   2  -6 -18 1465.99 850.738   7
   2  -6 -17 109.573 587.066   7
   2  -6 -16 789.907 870.647   7
   2  -6 -15 3.77160 692.984   7
   2  -6 -14 432.778 812.193   7
   2  -6 -13 66.0559 805.483   7
   2  -6 -12 927.820 687.684   7
   2  -6 -11 2707.49 886.835   7
   2  -6 -10 6892.64 1454.76   7
   2  -6  -9 11376.3 1848.32   7
   2  -6  -8 5215.19 1378.78   7
   2  -6  -7 1713.02 863.630   7
   2  -6  -6 820.214 740.781   7
   2  -6  -6 1524.94 647.363   6
   2  -6  -5 11013.0 1875.64   7
   2  -6  -5 12730.4 1699.64   6
   2  -6  -4 21179.4 2502.29   7
   2  -6  -4 24110.4 2273.60   6
   2  -6  -3 22040.2 2592.51   7
   2  -6  -3 28441.7 2496.81   6
   2  -6  -2 21950.6 2521.03   7
   2  -6  -2 22141.9 2145.38   6
   2  -6  -1 12963.2 2016.82   7
   2  -6  -1 12201.2 1639.10   6
   2  -6   0 3803.66 1246.20   7
   2  -6   0 2892.00 873.642   6
   2  -6   1 1220.63 823.743   7
   2  -6   1-76.6302 454.963   6
   2  -6   2 12826.9 2054.43   7
   2  -6   2 12615.9 1716.65   6
   2  -6   3 30137.5 3051.08   7
   2  -6   3 28292.7 2650.40   6
   2  -6   4 33182.9 3147.54   2
   2  -6   4 30915.8 2842.82   6
   2  -6   5 18219.9 2476.75   2
   2  -6   5 20750.5 2339.64   6
   2  -6   6 1391.22 914.015   2
   2  -6   6 3178.39 1084.09   6
   2  -6   7 1046.65 798.978   2
   2  -6   7 2935.54 1084.82   6
   2  -6   8 3694.70 1339.13   2
   2  -6   8 2591.32 1092.58   6
   2  -6   9 6397.44 1729.58   2
   2  -6   9 6772.46 1766.10   6
   2  -6  10 3982.33 1384.75   2
   2  -6  10 4408.18 1449.82   6
   2  -6  11 4564.77 1601.20   2
   2  -6  11 3410.26 1512.65   6
   2  -6  12 1660.05 924.914   2
   2  -6  12 4135.07 1648.21   6
   2  -6  13 1316.40 1107.58   2
   2  -6  13 857.659 1249.05   6
   2  -6  14-1294.95 959.407   2
   2  -6  14 820.352 1355.45   6
   2  -6  15-123.736 697.091   2
   2  -6  15 698.580 952.817   6
   2  -6  16 2685.39 1473.78   6
   2  -6  17 2272.63 1461.69   6
   2  -6  18 2282.06 1292.52   6
   2  -5 -22 311.174 535.667   7
   2  -5 -21 193.697 699.321   7
   2  -5 -20 445.346 484.252   7
   2  -5 -19 46.9796 706.561   7
   2  -5 -18 2055.48 1241.37   7
   2  -5 -17 1411.00 892.471   7
   2  -5 -16 825.850 863.737   7
   2  -5 -15 1794.16 889.701   7
   2  -5 -14 4431.23 1357.72   7
   2  -5 -13 5387.53 1425.68   7
   2  -5 -12 5886.24 1233.91   7
   2  -5 -11 971.902 808.451   7
   2  -5 -10 40.9106 373.927   7
   2  -5  -9 7421.06 1465.04   7
   2  -5  -8 8943.57 1563.01   7
   2  -5  -7 26723.3 2639.78   7
   2  -5  -6 26079.5 2582.04   7
   2  -5  -6 27675.1 2504.27   6
   2  -5  -5 16573.8 2013.54   7
   2  -5  -5 17063.6 1931.66   6
   2  -5  -4 5170.02 1220.76   7
   2  -5  -4 6453.43 1140.93   6
   2  -5  -3-1238.82 778.815   7
   2  -5  -3 54.6394 316.598   6
   2  -5  -2 10556.8 1635.01   7
   2  -5  -2 10692.9 1399.56   6
   2  -5  -2 7310.92 671.366   4
   2  -5  -1 34591.1 3094.77   7
   2  -5  -1 36267.8 2692.69   6
   2  -5   0 50889.8 3674.84   7
   2  -5   0 48621.2 3211.98   6
   2  -5   1 50671.1 3671.23   7
   2  -5   1 51365.2 3292.37   6
   2  -5   2 24265.6 2609.84   7
   2  -5   2 22596.5 2231.42   6
   2  -5   3 4005.39 1066.37   2
   2  -5   3 5203.87 1357.51   7
   2  -5   3 4108.64 1037.51   6
   2  -5   4-663.073 787.880   2
   2  -5   4-171.450 434.441   6
   2  -5   5 7743.42 1464.91   2
   2  -5   5 7626.21 1521.24   6
   2  -5   6 20016.2 2387.76   2
   2  -5   6 20445.1 2384.20   6
   2  -5   7 26945.7 2799.16   2
   2  -5   7 25367.7 2828.00   6
   2  -5   8 16952.8 2348.44   2
   2  -5   8 16703.3 2334.20   6
   2  -5   9 2520.22 1127.44   2
   2  -5   9 3069.33 1166.72   6
   2  -5  10 262.289 745.822   2
   2  -5  10 1240.84 1124.21   6
   2  -5  11-13.3254 694.404   2
   2  -5  11 1086.83 1076.25   6
   2  -5  12 1191.86 614.911   2
   2  -5  12 956.799 1009.94   6
   2  -5  13 2301.56 1280.96   2
   2  -5  13 2383.72 1310.09   6
   2  -5  14 1090.28 877.772   2
   2  -5  14 2052.35 1258.08   6
   2  -5  15 889.587 1089.85   1
   2  -5  15 1818.22 1137.35   2
   2  -5  15 2242.58 1482.29   6
   2  -5  16 1366.06 1079.95   1
   2  -5  16 4442.54 1985.07   6
   2  -5  17 2382.79 1313.46   1
   2  -5  17 4255.63 2183.85   6
   2  -5  18-1724.88 925.724   1
   2  -5  18 4116.36 2247.57   6
   2  -5  19 267.879 819.874   1
   2  -5  19 2972.46 1919.60   6
   2  -4 -23-591.509 475.734   7
   2  -4 -22-140.211 575.382   7
   2  -4 -21 486.658 618.973   7
   2  -4 -20 1793.34 942.044   7
   2  -4 -19 1619.42 971.851   7
   2  -4 -18 401.326 760.444   7
   2  -4 -17 1747.83 876.338   7
   2  -4 -16 415.695 531.898   7
   2  -4 -15 317.538 450.879   7
   2  -4 -14 1003.40 646.221   7
   2  -4 -13 1250.03 816.915   7
   2  -4 -12 5729.08 1225.69   7
   2  -4 -12 5005.73 907.552   5
   2  -4 -11 10195.5 1698.68   7
   2  -4 -11 9049.25 1067.84   5
   2  -4 -10 13849.2 1834.79   7
   2  -4 -10 14298.4 1225.70   5
   2  -4  -9 19577.8 2124.10   7
   2  -4  -9 16889.4 1213.67   5
   2  -4  -8 9479.80 1398.55   7
   2  -4  -8 7996.81 699.939   5
   2  -4  -7 1917.90 714.938   7
   2  -4  -7 1314.68 241.318   5
   2  -4  -6 14844.4 1784.31   7
   2  -4  -6 16695.8 1874.76   6
   2  -4  -5 38680.4 2894.75   7
   2  -4  -5 40113.8 2935.90   6
   2  -4  -4 63405.2 3793.82   7
   2  -4  -4 63598.6 3657.96   6
   2  -4  -3 60691.3 3772.00   7
   2  -4  -3 69310.3 3766.73   6
   2  -4  -2 26964.7 1305.38   8
   2  -4  -2 25418.2 1238.38   4
   2  -4  -2 32549.0 2645.33   7
   2  -4  -2 34264.1 2536.75   6
   2  -4  -1 7663.36 1258.41   7
   2  -4  -1 8615.08 1254.76   6
   2  -4   0-59.7477 482.794   7
   2  -4   0 171.826 509.133   6
   2  -4   1 10080.5 1482.58   7
   2  -4   1 10721.7 1414.09   6
   2  -4   2 29997.6 2651.89   7
   2  -4   2 31996.5 2510.65   6
   2  -4   3 48795.7 3244.98   2
   2  -4   3 41942.6 3256.69   7
   2  -4   3 48382.7 3283.61   6
   2  -4   4 49339.4 3437.03   2
   2  -4   4 48405.2 3324.68   6
   2  -4   5 28266.7 2658.06   2
   2  -4   5 32657.9 2789.95   6
   2  -4   6 10923.6 1637.38   2
   2  -4   6 12222.1 1794.68   6
   2  -4   7 1226.58 740.433   2
   2  -4   7 1682.13 1024.99   6
   2  -4   8 10178.3 1700.59   2
   2  -4   8 11266.3 2028.58   6
   2  -4   9 2639.06 892.889   2
   2  -4   9 3858.99 1389.74   6
   2  -4  10 19543.5 2330.14   2
   2  -4  10 17233.8 2481.47   1
   2  -4  10 18870.4 2648.02   6
   2  -4  11 14227.8 2154.95   2
   2  -4  11 12994.0 2264.04   1
   2  -4  12 7013.91 1576.48   2
   2  -4  12 8713.17 2108.04   6
   2  -4  12 6302.58 1706.62   1
   2  -4  13 908.340 776.929   2
   2  -4  13 631.509 857.677   6
   2  -4  13 2094.21 1124.29   1
   2  -4  14 728.166 750.094   2
   2  -4  14-380.358 650.680   1
   2  -4  15 1110.37 951.822   2
   2  -4  15 2537.90 1297.99   1
   2  -4  16 2760.69 1312.63   1
   2  -4  17 853.072 971.431   1
   2  -4  18 5.02712 870.006   1
   2  -4  19 3092.44 2024.39   6
   2  -4  19 118.468 700.982   1
   2  -4  20 2821.98 2000.09   6
   2  -4  20-1825.48 1456.96   1
   2  -3 -23-209.828 484.106   7
   2  -3 -22 184.306 557.925   7
   2  -3 -21-108.579 438.529   7
   2  -3 -20-147.292 455.178   7
   2  -3 -19-42.0119 724.261   7
   2  -3 -18-169.745 562.188   7
   2  -3 -17 19.2468 472.637   7
   2  -3 -16 202.225 405.352   5
   2  -3 -16-323.778 475.472   7
   2  -3 -15 1118.22 635.768   5
   2  -3 -15 1943.03 963.197   7
   2  -3 -14 5520.89 1372.37   7
   2  -3 -14 5874.76 1218.26   5
   2  -3 -13 9582.95 1660.45   7
   2  -3 -13 9056.18 1355.27   5
   2  -3 -12 6404.88 1286.92   7
   2  -3 -12 5631.17 1080.34   5
   2  -3 -11 2135.40 742.620   7
   2  -3 -11 930.026 476.205   5
   2  -3 -10 1881.34 755.003   7
   2  -3 -10 1515.20 533.294   5
   2  -3  -9 10882.1 1557.60   7
   2  -3  -9 10607.8 1172.71   5
   2  -3  -8 27114.6 2369.53   7
   2  -3  -8 24176.8 1617.57   5
   2  -3  -7 41806.1 2890.55   7
   2  -3  -7 38305.2 1964.37   5
   2  -3  -6 18202.7 1811.46   7
   2  -3  -6 16894.1 2012.24   6
   2  -3  -6 16276.1 1098.50   5
   2  -3  -5 40721.4 2744.76   7
   2  -3  -5 44052.5 2931.75   6
   2  -3  -5 37704.5 1659.69   5
   2  -3  -4 25738.2 2120.53   7
   2  -3  -4 27982.5 2237.16   6
   2  -3  -3 758.663 443.365   7
   2  -3  -3-297.325 354.422   6
   2  -3  -2 26133.7 2093.46   7
   2  -3  -2 28271.6 2186.82   6
   2  -3  -1 90443.7 3004.31   8
   2  -3  -1 96594.6 3316.85   4
   2  -3  -1 116836. 4727.96   7
   2  -3  -1 119318. 4791.57   6
   2  -3   0 172138. 6375.59   7
   2  -3   0 174636. 6381.44   6
   2  -3   1 147218. 5760.71   7
   2  -3   1 153870. 5908.54   6
   2  -3   2 26178.9 2157.24   7
   2  -3   2 29339.9 2307.87   6
   2  -3   3 4151.17 1008.24   7
   2  -3   3 2902.35 720.386   6
   2  -3   4 8992.66 1213.59   2
   2  -3   4 7692.62 1267.49   6
   2  -3   5 42235.1 2787.20   2
   2  -3   5 39018.7 3067.93   6
   2  -3   6 47351.4 3238.34   2
   2  -3   6 53486.3 3675.36   6
   2  -3   7 40252.3 2870.47   2
   2  -3   7 40003.9 3327.60   6
   2  -3   8 20502.1 2099.53   2
   2  -3   8 19411.1 2313.54   1
   2  -3   8 24077.5 2782.53   6
   2  -3   9 10206.5 1461.51   2
   2  -3   9 11459.3 2052.41   6
   2  -3   9 6982.60 1505.14   1
   2  -3  10 3531.70 934.607   2
   2  -3  10 1919.90 1188.49   6
   2  -3  10 2529.63 1056.22   1
   2  -3  11 1882.51 828.492   2
   2  -3  11 248.323 592.300   1
   2  -3  12 4905.20 1292.48   2
   2  -3  12 3506.18 1258.61   1
   2  -3  13 4901.74 1290.79   2
   2  -3  13 3177.48 1022.64   1
   2  -3  14 3869.00 1253.74   2
   2  -3  14 6534.72 1723.54   1
   2  -3  15 2346.02 1270.50   1
   2  -3  16 1239.33 984.510   1
   2  -3  17 1.06992 705.163   1
   2  -3  18 561.584 771.357   1
   2  -3  19 2540.23 1568.18   1
   2  -3  20 2083.44 1394.89   1
   2  -3  21-1747.29 1198.22   1
   2  -2 -23 1821.52 1081.31   7
   2  -2 -22 1014.60 883.623   7
   2  -2 -21 1073.31 790.738   7
   2  -2 -20 1675.15 980.718   7
   2  -2 -19 936.668 756.856   5
   2  -2 -19 1498.41 757.778   7
   2  -2 -18 1902.13 1084.66   5
   2  -2 -18 2379.13 990.463   7
   2  -2 -17 2308.58 847.261   5
   2  -2 -17 3239.47 1341.77   7
   2  -2 -16 2043.31 943.941   5
   2  -2 -16 2727.67 1079.46   7
   2  -2 -15 263.945 628.622   5
   2  -2 -15 1055.62 658.163   7
   2  -2 -14 332.778 472.965   5
   2  -2 -14 1911.14 960.104   7
   2  -2 -13 10012.9 1561.62   5
   2  -2 -13 8778.83 1540.96   7
   2  -2 -12 3479.27 929.366   5
   2  -2 -12 3801.91 1040.93   7
   2  -2 -11 10898.5 1591.66   7
   2  -2 -11 12865.6 1552.44   5
   2  -2 -10 20584.3 2109.43   7
   2  -2 -10 18428.0 1791.85   5
   2  -2  -9 18714.8 1913.04   7
   2  -2  -9 18714.9 1682.36   5
   2  -2  -8 9265.59 1327.93   7
   2  -2  -8 9293.56 1143.57   5
   2  -2  -7 324.091 354.695   7
   2  -2  -7-219.154 240.424   5
   2  -2  -6 25817.7 2052.51   7
   2  -2  -6 25936.7 2353.82   6
   2  -2  -6 24018.3 1615.23   5
   2  -2  -5 52314.9 2963.38   7
   2  -2  -5 54201.6 3245.01   6
   2  -2  -5 49820.3 2305.09   5
   2  -2  -4 148854. 5523.83   7
   2  -2  -4 153044. 5837.86   6
   2  -2  -4 141191. 4521.13   5
   2  -2  -3 100747. 4114.59   7
   2  -2  -3 101459. 4520.77   6
   2  -2  -3 88380.4 3221.47   5
   2  -2  -2 30767.1 2042.77   7
   2  -2  -2 31460.6 2221.88   6
   2  -2  -1 4982.51 837.624   7
   2  -2  -1 3598.34 539.569   4
   2  -2  -1 4501.74 847.148   6
   2  -2   0 2041.34 580.251   7
   2  -2   0 1259.83 481.483   6
   2  -2   1 18884.4 1529.17   7
   2  -2   1 19988.0 1751.63   6
   2  -2   2 37310.3 2194.95   7
   2  -2   2 39910.1 2590.17   6
   2  -2   3 97485.1 4055.64   7
   2  -2   3 102051. 4676.71   6
   2  -2   4 84299.6 3928.49   2
   2  -2   4 103465. 4634.75   6
   2  -2   5 51164.2 2758.10   2
   2  -2   5 51290.0 3384.55   6
   2  -2   6 7374.77 1093.78   2
   2  -2   6 10950.0 1742.30   6
   2  -2   6 10287.9 1440.11   1
   2  -2   7 1399.59 571.980   2
   2  -2   7 1325.56 1033.49   6
   2  -2   7 1447.27 664.185   1
   2  -2   8 8107.94 1255.75   2
   2  -2   8 9363.22 1725.55   6
   2  -2   8 7353.10 1324.90   1
   2  -2   9 9673.66 1439.63   2
   2  -2   9 8457.90 1506.68   1
   2  -2  10 54578.6 3289.64   2
   2  -2  10 53955.1 3826.48   1
   2  -2  11 6379.48 1398.46   1
   2  -2  11 6090.25 1117.02   2
   2  -2  12 7363.48 1575.42   1
   2  -2  12 7529.31 1462.09   2
   2  -2  13 2172.64 640.217   1
   2  -2  13 1778.91 779.728   2
   2  -2  14 653.562 716.296   1
   2  -2  14 1140.05 693.719   2
   2  -2  15 3077.86 1317.51   1
   2  -2  16 1980.02 1175.76   1
   2  -2  17 2408.23 1285.86   1
   2  -2  18 1192.85 925.884   1
   2  -2  19 827.329 1245.15   1
   2  -2  20 1104.20 1211.15   1
   2  -2  21-276.007 1152.77   1
   2  -2  22 277.442 843.199   1
   2  -1 -22 20.8445 535.713   5
   2  -1 -21-0.97958 761.567   5
   2  -1 -20-292.220 689.179   5
   2  -1 -20-523.038 536.452   7
   2  -1 -19-293.101 487.347   5
   2  -1 -19-47.7829 363.421   7
   2  -1 -18-1808.96 900.230   5
   2  -1 -18-459.043 381.612   7
   2  -1 -17 932.937 805.938   5
   2  -1 -17 636.715 695.082   7
   2  -1 -16-665.467 782.341   5
   2  -1 -16 1280.64 900.068   7
   2  -1 -15 1665.90 712.559   5
   2  -1 -15 2406.28 975.925   7
   2  -1 -14 4241.79 1222.69   5
   2  -1 -14 4996.12 1274.33   7
   2  -1 -13 9462.13 1571.13   5
   2  -1 -13 9085.28 1548.08   7
   2  -1 -12 9599.02 1559.92   5
   2  -1 -12 8751.43 1475.15   7
   2  -1 -11 4183.93 998.518   5
   2  -1 -11 3688.89 967.466   7
   2  -1 -10 1565.73 648.632   5
   2  -1 -10 2102.05 667.499   7
   2  -1  -9 27629.3 2353.65   7
   2  -1  -9 25977.9 2190.80   5
   2  -1  -8 50133.9 3129.42   7
   2  -1  -8 52126.6 3040.06   5
   2  -1  -7 60423.3 3319.56   7
   2  -1  -7 56881.3 3051.02   5
   2  -1  -6 59892.1 3157.74   7
   2  -1  -6 52489.6 2789.22   5
   2  -1  -5 76079.3 3519.86   7
   2  -1  -5 69978.9 3853.99   6
   2  -1  -5 69402.6 3133.89   5
   2  -1  -4 75.4191 245.096   7
   2  -1  -4-32.9842 303.694   6
   2  -1  -4 218.075 248.948   5
   2  -1  -3 9604.79 1054.13   7
   2  -1  -3 8977.67 1240.75   6
   2  -1  -3 7580.33 870.182   5
   2  -1  -2 62021.1 2063.54   8
   2  -1  -2 73149.1 3027.39   7
   2  -1  -2 73187.3 3424.84   6
   2  -1  -2 69847.2 2839.25   5
   2  -1  -1 156494. 5023.79   7
   2  -1  -1 148050. 4195.48   8
   2  -1   0 185820. 5722.02   7
   2  -1   0 196225. 6453.28   6
   2  -1   1 118342. 3994.58   7
   2  -1   1 122899. 4684.53   6
   2  -1   2 36066.1 1893.79   7
   2  -1   2 40844.9 2427.67   6
   2  -1   3 40565.9 1950.97   7
   2  -1   3 46902.4 2734.54   6
   2  -1   4 29295.0 1633.01   7
   2  -1   4 32966.4 2352.82   6
   2  -1   5 40421.9 2054.99   2
   2  -1   5 40131.9 2453.60   1
   2  -1   5 43608.3 2884.79   6
   2  -1   6 90161.1 3520.72   2
   2  -1   6 93158.8 4082.60   1
   2  -1   6 100769. 4814.89   6
   2  -1   7 132362. 4706.48   2
   2  -1   7 134177. 5397.73   1
   2  -1   7 145573. 6364.41   6
   2  -1   8 83302.6 3549.41   2
   2  -1   8 85213.0 4250.00   1
   2  -1   9 13781.3 1388.64   2
   2  -1   9 17020.4 1862.88   1
   2  -1  10 928.976 611.242   1
   2  -1  10 1002.78 555.308   2
   2  -1  11 14698.6 1594.73   2
   2  -1  11 14463.6 1930.65   1
   2  -1  12 10373.8 1688.55   1
   2  -1  12 10382.7 1440.17   2
   2  -1  13 10839.0 1867.41   1
   2  -1  13 8047.99 1261.83   2
   2  -1  14 9104.93 1715.99   1
   2  -1  14 6985.89 1341.41   2
   2  -1  15 3086.62 1100.47   1
   2  -1  16-262.803 757.102   1
   2  -1  17 320.631 751.540   1
   2  -1  18 1128.19 822.499   1
   2  -1  19-385.763 672.566   1
   2  -1  20 5.76907 589.302   1
   2  -1  21-272.756 754.045   1
   2  -1  22 2240.00 1404.01   1
   2   0 -23-250.616 568.385   5
   2   0 -22-1878.17 1053.82   5
   2   0 -21-88.4884 626.712   5
   2   0 -20 333.643 605.053   5
   2   0 -19 444.523 808.014   5
   2   0 -18 551.660 696.140   5
   2   0 -18 3519.59 1348.03   7
   2   0 -17 1821.30 942.147   5
   2   0 -17 1547.54 757.929   7
   2   0 -16 1037.41 435.033   5
   2   0 -16 1596.56 894.632   7
   2   0 -15 1021.81 748.716   5
   2   0 -15 285.269 509.792   7
   2   0 -14 992.380 725.456   5
   2   0 -14-172.440 509.720   7
   2   0 -13 6253.26 1405.88   5
   2   0 -13 3643.76 975.250   7
   2   0 -12 4966.41 1169.42   5
   2   0 -12 5113.71 1184.72   7
   2   0 -11 39017.6 3028.80   7
   2   0 -11 37008.9 3051.44   5
   2   0 -10 16286.2 1872.75   7
   2   0 -10 18107.6 2049.58   5
   2   0  -9 16536.4 1815.14   7
   2   0  -9 14988.3 1800.66   5
   2   0  -8 4336.07 898.384   7
   2   0  -8 4580.06 1021.76   5
   2   0  -7 3399.19 758.571   7
   2   0  -7 3809.54 825.104   5
   2   0  -6 45842.2 2706.24   7
   2   0  -6 44208.8 2701.65   5
   2   0  -5 71670.7 3386.46   7
   2   0  -5 70056.9 3437.14   5
   2   0  -4 124239. 4591.25   7
   2   0  -4 124451. 5096.80   6
   2   0  -4 119405. 4576.54   5
   2   0  -3 45827.2 2380.64   7
   2   0  -3 49466.3 2790.87   6
   2   0  -3 48578.2 2509.75   5
   2   0  -2 59320.8 2397.42   8
   2   0  -2 62820.1 2682.56   7
   2   0  -2 64473.8 3126.07   6
   2   0  -2 61542.8 2813.64   5
   2   0  -1 27371.3 1475.99   8
   2   0  -1 29014.0 1591.61   7
   2   0  -1 25008.2 1938.47   6
   2   0  -1 28204.9 1793.99   5
   2   0   0 326.420 204.124   8
   2   0   0 309.044 221.160   7
   2   0   1 51609.2 2189.95   9
   2   0   1 53323.5 2415.79   8
   2   0   1 55837.8 2065.80   7
   2   0   1 57942.8 2858.15   6
   2   0   2 185007. 4989.44   7
   2   0   2 202302. 6376.23   6
   2   0   3 214629. 5529.86   7
   2   0   3 247718. 7387.94   6
   2   0   4 46484.5 1576.82   7
   2   0   4 50204.7 2281.06   1
   2   0   5 7786.92 573.155   7
   2   0   5 11778.2 1089.38   1
   2   0   5 11526.7 1479.93   6
   2   0   6 97.6632 146.785   2
   2   0   6 585.080 155.704   7
   2   0   7 2634.47 662.519   1
   2   0   7 1513.66 261.337   7
   2   0   7 2606.41 454.948   2
   2   0   7 3646.74 1010.63   6
   2   0   8 3969.05 888.410   1
   2   0   8 2866.53 407.277   7
   2   0   8 4328.08 592.212   2
   2   0   9 9721.81 955.996   2
   2   0   9 9223.27 1301.81   1
   2   0  10 14172.5 1255.36   2
   2   0  10 15456.7 1707.87   1
   2   0  11 6943.25 1237.37   1
   2   0  11 8739.34 1047.79   2
   2   0  12 34583.3 2314.65   2
   2   0  12 39951.6 3096.34   1
   2   0  13 2764.45 956.677   1
   2   0  13 2783.60 668.354   2
   2   0  14 768.659 819.847   1
   2   0  15 2030.98 931.670   1
   2   0  16 4963.23 1368.08   1
   2   0  17 5803.51 1551.56   1
   2   0  18 2092.20 1207.82   1
   2   0  19 1124.86 1075.07   1
   2   0  20-1717.37 1233.27   1
   2   0  21-685.542 854.261   1
   2   0  22 625.601 834.183   1
   2   0  23 124.388 624.986   1
   2   1 -22 549.918 936.481   5
   2   1 -21-671.328 768.181   5
   2   1 -20 701.434 795.269   5
   2   1 -19 594.946 909.748   5
   2   1 -18-529.390 712.941   5
   2   1 -17-194.953 594.618   5
   2   1 -16 247.242 599.595   5
   2   1 -15 2711.80 1133.48   5
   2   1 -14 4330.33 1280.51   5
   2   1 -14 4789.37 1265.69   7
   2   1 -13 4641.39 1366.93   5
   2   1 -13 6460.22 1418.80   7
   2   1 -12 2404.13 1081.31   5
   2   1 -12 2873.19 991.642   7
   2   1 -11-597.724 666.632   5
   2   1 -11 669.648 600.880   7
   2   1 -10 3444.42 880.861   5
   2   1 -10 4581.41 1046.34   7
   2   1  -9 6889.61 1205.00   7
   2   1  -9 6526.55 1219.57   5
   2   1  -8 28496.5 2373.46   7
   2   1  -8 27314.7 2401.33   5
   2   1  -7 69355.1 3634.70   7
   2   1  -7 66233.1 3814.53   5
   2   1  -6 96527.8 4289.39   7
   2   1  -6 96619.2 4551.34   5
   2   1  -5 58503.9 3054.24   7
   2   1  -5 55929.5 3299.24   5
   2   1  -4 5424.49 826.651   7
   2   1  -4 4878.97 812.965   5
   2   1  -3 8127.98 1024.87   8
   2   1  -3 10718.6 1090.95   7
   2   1  -3 8196.96 1103.86   6
   2   1  -3 8490.27 1094.87   5
   2   1  -2 190553. 6133.57   8
   2   1  -2 191956. 5946.21   7
   2   1  -2 198351. 6415.67   6
   2   1  -2 200859. 6512.49   5
   2   1  -1 282186. 7920.20   8
   2   1  -1 276060. 7613.63   7
   2   1  -1 278127. 8191.79   6
   2   1  -1 270573. 8197.57   5
   2   1   0 224033. 6203.64   8
   2   1   0 216500. 5576.72   7
   2   1   0 232326. 6433.76   6
   2   1   0 225375. 6521.41   5
   2   1   1 96777.8 2890.59   9
   2   1   1 99564.3 3846.35   8
   2   1   1 99935.1 3092.79   7
   2   1   1 106887. 3913.06   6
   2   1   2 22246.4 1193.11   9
   2   1   2 24478.9 1797.31   8
   2   1   2 25439.7 1696.76   6
   2   1   3 218.569 276.008   6
   2   1   3 194.288 139.590   1
   2   1   4 39684.0 1652.04   1
   2   1   4 42199.1 2429.23   6
   2   1   5 16588.1 1666.76   6
   2   1   5 16980.6 1141.26   1
   2   1   6 221794. 7451.56   6
   2   1   6 201201. 6105.69   1
   2   1   7 151023. 5968.71   6
   2   1   7 135610. 4809.65   1
   2   1   8 34216.2 1287.35   7
   2   1   8 48375.2 2559.72   1
   2   1   9 5129.24 505.195   7
   2   1   9 4301.22 478.965   2
   2   1   9 6153.30 1027.99   1
   2   1  10 1209.52 304.646   7
   2   1  10 1364.66 353.641   2
   2   1  10 1988.86 579.727   1
   2   1  11 12294.6 1053.31   2
   2   1  11 12227.0 1616.99   1
   2   1  12 17133.9 1369.94   2
   2   1  12 18408.4 1987.83   1
   2   1  13 16583.0 2067.21   1
   2   1  14 6069.18 1344.17   1
   2   1  15 1485.36 915.224   1
   2   1  16 1225.79 851.874   1
   2   1  17 231.671 623.996   1
   2   1  18 275.944 571.197   1
   2   1  19 1327.95 1115.29   1
   2   1  20 798.284 769.939   1
   2   1  21-283.211 598.581   1
   2   1  22 722.765 994.951   1
   2   1  23-1232.24 1100.72   1
   2   2 -22 3.68452 673.981   5
   2   2 -21 879.699 1099.71   5
   2   2 -20 315.229 932.077   5
   2   2 -19-304.305 682.516   5
   2   2 -18 681.021 968.469   5
   2   2 -17 926.953 821.942   5
   2   2 -16 673.243 943.927   5
   2   2 -15 1545.80 1043.92   5
   2   2 -14 892.563 737.899   5
   2   2 -13 2981.35 1185.58   5
   2   2 -12 14396.9 2068.72   5
   2   2 -11 28122.8 2845.82   5
   2   2 -10 9441.73 1531.94   5
   2   2  -9 25296.9 2635.08   5
   2   2  -8 1129.42 824.746   5
   2   2  -7 13701.9 1762.23   5
   2   2  -6 40234.8 2954.31   5
   2   2  -5 67754.8 3808.06   5
   2   2  -4 77988.8 3942.90   5
   2   2  -3 62897.1 3267.70   8
   2   2  -3 59645.9 3437.68   5
   2   2  -2 63906.8 3171.32   8
   2   2  -2 61684.8 2971.90   6
   2   2  -2 64009.8 3308.50   5
   2   2  -1 7729.94 1073.66   8
   2   2  -1 7741.92 951.455   6
   2   2  -1 8093.23 610.562   1
   2   2  -1 7323.86 1040.98   5
   2   2   0 3166.50 570.635   8
   2   2   0 3268.14 590.412   6
   2   2   0 2863.31 278.803   1
   2   2   0 3453.75 767.419   5
   2   2   1 56410.0 2882.30   8
   2   2   1 52035.5 2470.13   6
   2   2   1 54903.0 2951.53   5
   2   2   2 132070. 5030.22   8
   2   2   2 124087. 4353.05   6
   2   2   3 141515. 5293.70   8
   2   2   3 145266. 4696.51   6
   2   2   3 127927. 3365.83   1
   2   2   4 111508. 4738.61   8
   2   2   4 113119. 4185.11   6
   2   2   4 104496. 3115.33   1
   2   2   5 63402.3 3106.94   6
   2   2   5 62108.1 2341.90   1
   2   2   6 1091.53 381.725   1
   2   2   6 1449.84 596.660   6
   2   2   7 6060.79 786.188   1
   2   2   7 6800.61 1193.92   6
   2   2   8 22462.1 1704.02   1
   2   2   9 28500.3 2082.70   1
   2   2  10 23901.7 1369.31   7
   2   2  10 23301.6 1076.20   2
   2   2  11 19874.7 1128.43   2
   2   2  11 28651.8 2307.42   1
   2   2  12 8362.25 1388.06   1
   2   2  12 6350.12 692.557   2
   2   2  13 265.876 553.563   1
   2   2  14-651.730 626.645   1
   2   2  15 3236.46 1014.55   1
   2   2  16 3834.28 1093.17   1
   2   2  17 1549.23 879.893   1
   2   2  18 1127.18 568.861   1
   2   2  19-664.950 871.206   1
   2   2  20-32.9483 671.796   1
   2   2  21-672.025 897.493   1
   2   2  22-172.242 587.929   1
   2   2  23 401.721 940.067   1
   2   3 -21 945.885 1032.24   5
   2   3 -20-1117.23 1204.07   5
   2   3 -19-137.255 828.522   5
   2   3 -18-571.783 564.111   5
   2   3 -17 108.705 580.326   5
   2   3 -16 1617.02 1000.88   5
   2   3 -15 2218.29 1063.39   5
   2   3 -14 3097.95 1193.94   5
   2   3 -13 2808.54 949.170   5
   2   3 -12 1998.70 892.018   5
   2   3 -11-277.670 689.304   5
   2   3 -10 3402.45 1274.62   5
   2   3  -9 18555.2 2389.51   5
   2   3  -8 54519.4 3859.72   5
   2   3  -7 46480.2 3449.40   5
   2   3  -6 36066.3 2917.88   5
   2   3  -5 13362.7 1779.52   5
   2   3  -4 221.056 164.829   9
   2   3  -4 740.649 564.756   5
   2   3  -3 38902.1 1643.43   9
   2   3  -3 42935.5 2930.83   8
   2   3  -3 40421.6 2790.31   5
   2   3  -2 131987. 3846.81   9
   2   3  -2 133083. 5543.04   8
   2   3  -2 144732. 5642.39   5
   2   3  -1 115169. 4732.60   8
   2   3  -1 107383. 3854.67   6
   2   3  -1 109090. 4688.78   5
   2   3   0 101654. 4525.15   8
   2   3   0 104146. 3736.84   6
   2   3   0 105783. 3295.37   1
   2   3   0 100399. 4561.76   5
   2   3   1 46832.9 2839.10   8
   2   3   1 42719.5 1715.22   1
   2   3   1 41443.9 2019.72   6
   2   3   1 44733.1 2759.83   5
   2   3   2 7497.34 1206.42   8
   2   3   2 7186.31 768.729   6
   2   3   2 7699.77 1155.17   5
   2   3   3 1519.00 586.996   8
   2   3   3 1269.12 377.305   6
   2   3   4 19870.0 1902.68   8
   2   3   4 18626.5 1123.64   2
   2   3   4 18809.7 1362.87   6
   2   3   5 52136.9 3296.01   8
   2   3   5 50647.8 1932.88   2
   2   3   5 54752.9 2663.79   6
   2   3   6 101035. 4873.08   8
   2   3   6 107357. 4163.36   6
   2   3   7 34927.4 2881.57   8
   2   3   7 28436.0 1239.28   2
   2   3   7 36992.3 2405.55   6
   2   3   7 32946.3 1892.77   1
   2   3   8 28687.5 1263.10   2
   2   3   8 34057.3 2096.79   1
   2   3   9 5802.72 528.253   2
   2   3   9 7494.90 1085.71   1
   2   3  10 160.201 401.450   1
   2   3  10 187.015 113.940   2
   2   3  10 425.209 211.253   2
   2   3  11 5346.19 570.104   2
   2   3  11 7854.82 1221.40   1
   2   3  12 13526.0 1706.06   1
   2   3  13 14853.5 1913.24   1
   2   3  14 7369.62 1426.53   1
   2   3  15 4092.76 1208.73   1
   2   3  16 572.875 425.942   1
   2   3  17 197.961 739.061   1
   2   3  18-633.110 765.521   1
   2   3  19 247.261 559.270   1
   2   3  20 305.271 839.206   1
   2   3  21-11.3688 620.736   1
   2   3  22 1381.23 1031.40   1
   2   3  23-242.313 1084.56   1
   2   4 -20 355.743 879.646   5
   2   4 -19 1525.11 1114.84   5
   2   4 -18 1592.09 1156.21   5
   2   4 -17 1957.04 1212.04   5
   2   4 -16 613.233 996.394   5
   2   4 -15 487.062 933.714   5
   2   4 -14 937.289 912.960   5
   2   4 -13 1892.31 974.592   5
   2   4 -12 6487.52 1640.69   5
   2   4 -11 11810.3 2068.85   5
   2   4 -10 17216.3 2356.53   5
   2   4  -9 16391.5 2329.43   5
   2   4  -8 526.499 710.797   5
   2   4  -7 1687.70 831.919   5
   2   4  -6 23775.5 1678.22   9
   2   4  -6 28260.2 2683.13   5
   2   4  -5 57581.1 2698.10   9
   2   4  -5 65094.8 4013.34   5
   2   4  -4 72833.0 3002.05   9
   2   4  -4 79366.4 4342.48   5
   2   4  -3 55625.7 2473.83   9
   2   4  -3 54239.4 3490.11   5
   2   4  -2 25146.2 1581.79   9
   2   4  -2 27414.4 2387.58   8
   2   4  -2 26789.1 2299.71   5
   2   4  -1 3482.53 598.647   9
   2   4  -1 3554.04 997.323   8
   2   4  -1 4349.23 937.747   5
   2   4   0 1085.40 645.498   8
   2   4   0 1008.46 490.461   5
   2   4   1 61134.1 3519.09   8
   2   4   1 56118.7 2289.81   6
   2   4   1 59066.4 3348.56   5
   2   4   2 145532. 5944.95   8
   2   4   2 136006. 4215.65   6
   2   4   2 139194. 5623.04   5
   2   4   3 169627. 6652.40   8
   2   4   3 157512. 4743.76   6
   2   4   4 111560. 5122.88   8
   2   4   4 99986.4 3503.98   6
   2   4   5 18401.4 2034.50   8
   2   4   5 18196.6 1313.32   6
   2   4   6 1616.31 653.497   8
   2   4   6 2939.04 559.776   6
   2   4   7 16108.7 2012.83   8
   2   4   7 17577.9 1541.55   6
   2   4   8 41685.0 3269.95   8
   2   4   8 42319.9 2668.85   6
   2   4   9 34325.8 3181.57   8
   2   4  10 25047.8 2750.91   8
   2   4  10 18635.7 1810.68   1
   2   4  11 9703.79 1863.98   8
   2   4  11 5678.70 1106.33   1
   2   4  12 1905.08 792.025   1
   2   4  13 278.975 468.049   1
   2   4  14 1769.93 820.756   1
   2   4  15 3169.57 1099.79   1
   2   4  16 3905.52 1248.73   1
   2   4  17 893.839 729.847   1
   2   4  18 3553.03 1256.10   1
   2   4  19-118.315 514.353   1
   2   4  20 645.533 810.109   1
   2   4  21 835.802 896.293   1
   2   4  22 246.807 694.956   1
   2   5 -19-558.710 642.464   5
   2   5 -18-942.630 891.011   5
   2   5 -17 647.931 762.646   5
   2   5 -16 1564.03 869.149   5
   2   5 -15 3524.10 1645.42   5
   2   5 -14 3323.94 1443.05   5
   2   5 -13 2593.55 1200.11   5
   2   5 -12 910.140 834.096   5
   2   5 -11 2683.26 1230.95   5
   2   5 -10 11085.8 1997.55   5
   2   5  -9 14965.0 2292.42   5
   2   5  -8 7800.40 1600.81   5
   2   5  -7 6101.57 971.706   9
   2   5  -7 5709.65 1258.77   5
   2   5  -6 12713.8 1338.82   9
   2   5  -6 15227.9 2053.80   5
   2   5  -5 4491.22 803.619   9
   2   5  -5 4524.36 1121.32   5
   2   5  -4 657.228 386.547   9
   2   5  -4 190.443 627.838   5
   2   5  -3 13631.7 1315.83   9
   2   5  -3 12719.2 1751.90   5
   2   5  -2 51840.0 2746.75   9
   2   5  -2 47209.5 3697.69   8
   2   5  -2 49601.3 3383.99   5
   2   5  -1 77896.1 3587.78   9
   2   5  -1 84046.1 4799.77   8
   2   5  -1 87670.8 4513.13   5
   2   5   0 85864.8 3905.36   9
   2   5   0 90887.3 4574.35   5
   2   5   1 16841.1 2100.83   8
   2   5   1 16916.2 1789.28   5
   2   5   2 376.011 503.438   8
   2   5   2 1009.61 698.309   5
   2   5   3 5749.53 1231.92   8
   2   5   3 5663.92 488.761   6
   2   5   3 6617.25 1207.20   5
   2   5   4 16413.1 2073.32   8
   2   5   4 16259.4 942.297   6
   2   5   5 29380.5 2692.08   8
   2   5   5 25452.7 1364.68   6
   2   5   6 35299.9 2945.07   8
   2   5   6 32134.4 1737.09   6
   2   5   7 37755.4 3222.64   8
   2   5   7 31256.1 1912.15   6
   2   5   8 31282.0 2966.65   8
   2   5   8 28846.6 1990.26   6
   2   5   9 5257.17 1394.73   8
   2   5   9 2292.99 672.525   6
   2   5  10-130.764 591.494   8
   2   5  11 5024.58 1503.62   8
   2   5  12 11543.9 2130.86   8
   2   5  12 9717.47 1467.29   1
   2   5  13 12435.7 2240.32   8
   2   5  13 8317.78 1531.25   1
   2   5  14 7433.01 1910.62   8
   2   5  14 4026.53 1096.01   1
   2   5  15 3438.46 1481.31   8
   2   5  15 1435.58 794.263   1
   2   5  16 1408.47 747.570   1
   2   5  16 1129.45 1209.59   8
   2   5  17 2656.85 1459.68   8
   2   5  17 780.648 718.841   1
   2   5  18 1780.16 1213.70   8
   2   5  18 1389.46 898.822   1
   2   5  19 835.310 993.717   8
   2   5  19 430.420 453.535   1
   2   5  20 2572.20 1574.58   8
   2   5  20-162.918 517.792   1
   2   5  21 3748.28 1860.93   8
   2   5  21-1126.89 1058.91   1
   2   5  22 757.728 1327.93   8
   2   6 -18 208.763 921.072   5
   2   6 -17 958.633 1144.15   5
   2   6 -16-1645.65 871.747   5
   2   6 -15 311.853 794.088   5
   2   6 -14 1778.15 1241.53   5
   2   6 -13 2794.32 1192.27   5
   2   6 -12 3420.09 1341.59   5
   2   6 -11 5249.86 1567.93   5
   2   6 -10 11198.1 2059.19   5
   2   6  -9 7211.60 1709.38   5
   2   6  -8 833.991 420.108   9
   2   6  -8 313.417 945.841   5
   2   6  -7 1763.73 606.964   9
   2   6  -7 2873.85 1221.44   5
   2   6  -6 38803.1 2673.40   9
   2   6  -6 46313.7 3731.65   5
   2   6  -5 41228.5 2723.32   9
   2   6  -5 47347.8 3636.53   5
   2   6  -4 35791.6 2494.00   9
   2   6  -4 38597.0 3218.59   5
   2   6  -3 18607.7 1756.86   9
   2   6  -3 18575.2 2172.44   5
   2   6  -2 4437.34 877.813   9
   2   6  -2 5983.44 1250.72   5
   2   6  -1 342.019 347.316   9
   2   6  -1 600.823 495.178   8
   2   6  -1 819.168 678.076   5
   2   6   0 11035.8 1435.21   9
   2   6   0 12089.5 1843.07   8
   2   6   0 12258.6 1679.84   5
   2   6   1 34083.9 3056.79   8
   2   6   1 37230.8 2857.16   5
   2   6   2 46118.4 3476.70   8
   2   6   2 40655.0 3040.69   5
   2   6   3 51155.2 3822.91   8
   2   6   3 55302.0 3553.26   5
   2   6   4 33411.9 2985.93   8
   2   6   5 8834.12 1597.73   8
   2   6   6 1429.07 973.539   8
   2   6   6-126.539 132.647   6
   2   6   7 10645.9 1867.02   8
   2   6   7 7659.54 740.949   6
   2   6   8 24468.8 2866.04   8
   2   6   8 24302.6 1570.90   6
   2   6   9 21906.0 2768.53   8
   2   6   9 21994.2 1711.45   6
   2   6  10 16942.6 2399.20   8
   2   6  10 17186.8 1662.59   6
   2   6  11 7387.17 1688.71   8
   2   6  11 9162.59 1335.39   6
   2   6  12 4606.31 1484.01   8
   2   6  13 465.903 723.910   8
   2   6  14 2169.74 1265.76   8
   2   6  14 1666.32 759.180   1
   2   6  15 5176.42 1557.65   8
   2   6  15 213.547 440.727   1
   2   6  16 3083.78 1069.64   8
   2   6  16 1932.42 874.448   1
   2   6  17 2907.07 1265.04   8
   2   6  17 1175.33 801.313   1
   2   6  18-543.254 621.409   1
   2   6  18-473.861 872.082   8
   2   6  19 1545.26 1248.24   8
   2   6  19 934.495 832.490   1
   2   6  20 1291.18 1158.43   8
   2   6  21-554.182 904.060   8
   2   6  22 304.539 800.393   8
   2   7 -17 1110.77 941.020   5
   2   7 -16-854.924 786.369   5
   2   7 -15 382.492 659.475   5
   2   7 -14 754.170 620.920   5
   2   7 -13-13.9950 844.879   5
   2   7 -12 537.992 850.841   5
   2   7 -11 1499.27 984.896   5
   2   7 -10 3135.93 1238.76   5
   2   7  -9 3454.26 857.649   9
   2   7  -9 5080.73 1461.74   5
   2   7  -8 5806.62 1138.18   9
   2   7  -8 8505.67 1826.95   5
   2   7  -7 8142.28 1308.31   9
   2   7  -7 9007.48 1741.98   5
   2   7  -6 3403.01 900.394   9
   2   7  -6 5059.38 1297.96   5
   2   7  -5 260.205 329.038   9
   2   7  -5 936.933 678.005   5
   2   7  -4 326.708 452.785   9
   2   7  -4-47.9301 456.477   5
   2   7  -3 9795.22 1385.66   9
   2   7  -3 9922.82 1685.57   5
   2   7  -2 27841.8 2420.43   9
   2   7  -2 26601.6 2675.12   5
   2   7  -1 33203.6 2725.56   9
   2   7  -1 35140.1 3308.42   8
   2   7  -1 35690.8 3042.55   5
   2   7   0 18283.3 2019.93   9
   2   7   0 25449.7 2766.15   8
   2   7   0 21510.9 2278.43   5
   2   7   1 5845.51 1154.12   9
   2   7   1 7125.41 1485.43   8
   2   7   1 7939.63 1400.54   5
   2   7   2 4315.55 1203.00   8
   2   7   2 2536.29 862.419   5
   2   7   3 3282.61 1166.88   8
   2   7   3 2271.97 833.743   5
   2   7   4 13423.2 2010.49   8
   2   7   5 26565.7 2953.25   8
   2   7   6 28876.9 2985.68   8
   2   7   7 16075.6 2319.72   8
   2   7   8 3071.54 898.680   8
   2   7   9-66.3179 802.109   8
   2   7  10 2314.13 1178.82   8
   2   7  11 5402.41 1452.56   8
   2   7  12 4487.77 1504.23   8
   2   7  13 3820.78 1395.97   8
   2   7  14 3286.41 1405.94   8
   2   7  15 4334.15 1642.60   8
   2   7  15-346.140 604.937   1
   2   7  16 1434.63 1025.32   8
   2   7  16 478.689 661.306   1
   2   7  17-391.344 1068.92   8
   2   7  17-719.262 710.820   1
   2   7  18 215.895 991.546   8
   2   7  18 53.2522 606.102   1
   2   7  19 1846.13 1492.66   8
   2   7  20 2129.74 1364.73   8
   2   7  21 210.645 878.422   8
   2   8 -16 234.260 773.627   5
   2   8 -15 1244.50 1198.54   5
   2   8 -14 600.169 851.856   5
   2   8 -13 839.022 833.114   5
   2   8 -12 4155.47 1622.92   5
   2   8 -11 2566.98 1188.39   5
   2   8 -10 1609.28 720.001   9
   2   8 -10 1098.72 830.749   5
   2   8  -9 1384.81 743.451   9
   2   8  -9 1525.18 930.368   5
   2   8  -8-216.419 367.216   9
   2   8  -8 1241.60 900.949   5
   2   8  -7 2590.44 854.513   9
   2   8  -7 3754.87 1309.91   5
   2   8  -6 6362.89 1226.95   9
   2   8  -6 8494.59 1651.62   5
   2   8  -5 4832.30 1068.42   9
   2   8  -5 4051.85 1203.14   5
   2   8  -4 13729.9 1809.72   9
   2   8  -4 13152.2 2017.00   5
   2   8  -3 7726.42 1388.09   9
   2   8  -3 6795.05 1503.88   5
   2   8  -2 3200.55 877.158   9
   2   8  -2 4863.27 1199.61   5
   2   8  -1 63.5812 421.792   9
   2   8  -1 930.159 780.564   5
   2   8   0 5132.67 1181.21   9
   2   8   0 7163.80 1590.63   8
   2   8   0 6725.55 1417.39   5
   2   8   1 16055.9 2067.66   9
   2   8   1 18439.6 2568.11   8
   2   8   1 16875.3 2067.12   5
   2   8   2 24924.3 2673.16   9
   2   8   2 29971.5 3204.63   8
   2   8   2 28626.6 2727.10   5
   2   8   3 24151.5 2844.97   8
   2   8   3 19858.6 2269.46   5
   2   8   4 8616.61 1742.47   8
   2   8   5 1417.34 915.981   8
   2   8   6 551.103 758.790   8
   2   8   7 3400.27 1191.78   8
   2   8   8 9864.46 2026.38   8
   2   8   8 6202.25 1526.71   3
   2   8   9 8688.29 1873.43   8
   2   8   9 8289.98 1810.44   3
   2   8  10 10336.9 2032.40   8
   2   8  11 6158.26 1788.82   8
   2   8  12 261.080 754.491   8
   2   8  13 1541.32 1278.44   8
   2   8  14 3137.89 1373.64   8
   2   8  15 2798.56 1267.84   8
   2   8  16 2756.99 1255.21   8
   2   8  17 212.448 667.543   8
   2   8  18 1384.22 1011.10   8
   2   8  19 573.440 793.627   8
   2   8  20 1572.46 1226.55   8
   2   8  21 1097.25 1135.31   8
   2   9 -14 689.954 889.726   5
   2   9 -13 2203.07 1147.22   5
   2   9 -12 843.917 830.461   5
   2   9 -11 850.022 965.673   5
   2   9 -10 3468.54 1423.70   5
   2   9  -9 3378.05 1311.32   5
   2   9  -8 1942.90 842.543   9
   2   9  -8 3348.17 1235.83   5
   2   9  -7 1495.23 792.799   9
   2   9  -7 2623.99 1012.54   5
   2   9  -6 583.913 595.896   9
   2   9  -6 2619.09 1160.97   5
   2   9  -5 168.470 479.152   9
   2   9  -5 1381.09 890.527   5
   2   9  -4 811.692 538.640   9
   2   9  -4 3013.98 1074.70   5
   2   9  -3 7012.02 1436.53   9
   2   9  -3 6069.12 1375.98   5
   2   9  -2 7686.37 1479.91   9
   2   9  -2 9149.65 1703.03   5
   2   9  -1 6976.58 1428.38   9
   2   9  -1 10530.5 1783.74   5
   2   9   0 5632.28 1276.14   9
   2   9   0 5467.15 1293.90   5
   2   9   1 2390.39 990.133   9
   2   9   1 3723.14 1304.16   8
   2   9   1 1952.56 852.001   5
   2   9   2 621.194 455.660   9
   2   9   2-81.7135 693.797   8
   2   9   2 1855.45 856.367   5
   2   9   3 1717.19 1018.19   9
   2   9   3 3152.90 1240.65   8
   2   9   3 3063.74 1086.96   5
   2   9   4 7505.02 1792.96   8
   2   9   5 11023.1 2104.38   8
   2   9   6 9795.13 2023.42   8
   2   9   7 7317.78 1817.19   8
   2   9   8 1469.64 1127.31   8
   2   9   9 379.057 897.129   8
   2   9  10 2438.13 992.794   8
   2   9  11 2544.60 1224.11   8
   2   9  12 1969.70 1117.69   8
   2   9  13 3754.07 1505.90   8
   2   9  14 1486.38 1120.45   8
   2   9  15 1867.58 1346.02   8
   2   9  16 1774.83 1209.62   8
   2   9  17-394.835 853.305   8
   2   9  18 1817.43 1247.60   8
   2   9  19-1363.28 907.255   8
   2  10 -13-174.096 634.310   5
   2  10 -12 1617.25 1077.32   5
   2  10 -11 945.967 1117.56   5
   2  10 -10-752.885 529.395   5
   2  10  -9 108.507 390.998   5
   2  10  -8 406.660 609.836   5
   2  10  -7 2072.38 1064.01   5
   2  10  -6 855.390 567.345   9
   2  10  -6 2846.85 1203.71   5
   2  10  -5 4663.45 1277.37   9
   2  10  -5 3312.50 1225.20   5
   2  10  -4 3939.67 1233.75   9
   2  10  -4 5753.34 1520.11   5
   2  10  -3 266.322 434.924   9
   2  10  -3 1900.50 921.631   5
   2  10  -2 190.231 567.472   9
   2  10  -2 101.387 423.425   5
   2  10  -1 623.572 730.562   9
   2  10  -1 489.988 456.093   5
   2  10   0 3396.95 1127.88   9
   2  10   0 3350.27 1043.13   5
   2  10   1 7592.26 1808.81   9
   2  10   2 6982.49 1768.44   9
   2  10   3 3076.25 1097.05   9
   2  10   3 5476.87 1647.55   8
   2  10   4 1947.94 1116.78   9
   2  10   4 3106.35 1357.02   8
   2  10   5 970.682 957.767   8
   2  10   6 1111.28 994.525   8
   2  10   7 743.657 887.681   8
   2  10   8 5630.49 1740.74   8
   2  10   9 2787.03 1232.63   8
   2  10  10 5268.17 1691.03   8
   2  10  11 1305.35 973.704   8
   2  10  12 816.393 714.815   8
   2  10  13 1105.17 1060.70   8
   2  10  14-326.893 815.189   8
   2  10  15 376.570 800.074   8
   2  10  16 1891.58 1274.35   8
   2  10  17-411.640 773.195   8
   2  11 -11 246.347 554.405   5
   2  11 -10-592.200 808.317   5
   2  11  -9 1067.36 712.782   5
   2  11  -8 1250.85 954.582   5
   2  11  -7 941.924 787.109   5
   2  11  -6 20.3997 527.036   5
   2  11  -2 1580.66 820.754   9
   2  11  -1 3239.59 1158.50   9
   2  11   0 1472.73 999.025   9
   2  11   1 755.735 615.885   9
   2  11   2-137.211 626.180   9
   2  11   3 738.128 826.144   9
   2  11   4 2297.05 1170.72   9
   2  11   4 1474.67 1008.42   8
   2  11   5 1854.75 1055.25   9
   2  11   5 4986.03 1644.08   8
   2  11   6 2835.20 1188.32   8
   2  11   7 2489.89 1123.44   8
   2  11   8 1962.46 1220.22   8
   2  11   9-42.7778 625.767   8
   2  11  10-155.587 1048.50   8
   2  11  11 1510.29 771.439   8
   2  11  12-1092.75 819.753   8
   2  11  13 1165.00 1318.50   8
   2  11  14-635.895 919.195   8
   2  12   2 955.555 842.730   9
   2  12   3 2105.91 1349.27   9
   2  12   4 824.297 786.390   9
   2  12   5-1308.18 970.189   9
   2  12   6-139.489 616.897   9
   2  12   6 1982.29 1340.44   8
   2  12   7-204.789 749.323   9
   2  12   7 2143.64 1154.64   8
   2  12   8 1741.19 1198.83   8
   2  12   9 4032.06 1786.61   8
   2  12  10-378.452 757.782   8
   2  12  11-1126.00 958.810   8
   2  13   8 1097.57 974.526   9
   3 -11  -5 2541.30 1656.58   7
   3 -11  -4 1868.31 1332.20   7
   3 -11  -3 2625.83 1492.70   7
   3 -11  -2 2092.51 1090.72   7
   3 -11  -1-1052.87 1252.48   7
   3 -11   0 475.380 882.374   7
   3 -11   1 2049.68 1317.20   7
   3 -11   2-1112.72 1053.37   7
   3 -11   3 485.518 765.345   7
   3 -10 -11-47.5392 607.042   7
   3 -10 -10 261.295 859.341   7
   3 -10  -9 343.473 755.019   7
   3 -10  -8 408.014 679.894   7
   3 -10  -7 1987.77 1354.00   7
   3 -10  -6 2352.31 1296.74   7
   3 -10  -5 723.150 1253.14   7
   3 -10  -4 1246.49 1030.09   7
   3 -10  -3 1597.60 1025.86   7
   3 -10  -2-1093.62 1178.71   7
   3 -10  -1-978.652 939.701   7
   3 -10   0 1190.35 1306.69   7
   3 -10   1 350.541 849.624   7
   3 -10   2-559.871 836.280   7
   3 -10   3 467.174 883.146   7
   3 -10   4 980.799 888.223   7
   3 -10   5 1859.09 1460.41   7
   3 -10   6 2017.36 1550.21   7
   3 -10   7 2959.21 1538.62   7
   3 -10   8 1905.69 1417.00   7
   3 -10   9-884.495 1120.20   7
   3  -9 -14 2391.00 1216.70   7
   3  -9 -13 1748.11 1068.77   7
   3  -9 -12 2704.63 1337.89   7
   3  -9 -11 449.306 674.853   7
   3  -9 -10 1303.97 1026.18   7
   3  -9  -9 260.426 612.191   7
   3  -9  -8 1035.20 844.352   7
   3  -9  -7 1044.96 994.613   7
   3  -9  -6 2547.61 1512.12   7
   3  -9  -5 2591.52 1318.81   7
   3  -9  -4 4083.50 1606.72   7
   3  -9  -3 2458.72 1305.01   7
   3  -9  -2-816.600 874.025   7
   3  -9  -1-224.054 666.226   7
   3  -9   0 1376.14 1254.56   7
   3  -9   1 3344.62 1376.78   7
   3  -9   2 3671.96 1448.44   7
   3  -9   3 2754.35 1326.35   7
   3  -9   4 3750.08 1644.28   7
   3  -9   5 28.6586 797.650   7
   3  -9   6 2011.44 1308.99   7
   3  -9   7 1328.59 1058.29   7
   3  -9   8 1204.12 1212.00   7
   3  -9   9 3032.76 1543.13   7
   3  -9  10 617.013 1260.84   7
   3  -8 -16 984.957 866.939   7
   3  -8 -15 221.337 608.622   7
   3  -8 -14 226.733 987.042   7
   3  -8 -13-618.846 484.302   7
   3  -8 -12 424.494 432.585   7
   3  -8 -11 527.560 736.687   7
   3  -8 -10 1163.83 919.454   7
   3  -8  -9 1783.58 1073.73   7
   3  -8  -8 2750.59 1000.13   7
   3  -8  -7 421.184 710.326   7
   3  -8  -7 1875.04 865.028   6
   3  -8  -6 1645.52 1023.86   7
   3  -8  -6 2675.84 1004.47   6
   3  -8  -5-147.015 727.467   7
   3  -8  -5 302.079 562.053   6
   3  -8  -4 370.582 662.390   7
   3  -8  -4 283.123 439.182   6
   3  -8  -3 2153.38 1354.95   7
   3  -8  -3 2106.34 925.981   6
   3  -8  -2 5515.50 1498.56   7
   3  -8  -2 5696.15 1418.12   6
   3  -8  -1 5270.62 1531.24   7
   3  -8  -1 6817.64 1617.55   6
   3  -8   0 3738.85 1308.42   7
   3  -8   0 4832.55 1298.78   6
   3  -8   1 1274.08 898.700   7
   3  -8   1 1637.66 932.803   6
   3  -8   2-313.963 843.990   7
   3  -8   2-304.343 462.218   6
   3  -8   3 528.026 741.073   7
   3  -8   3 1569.67 891.753   6
   3  -8   4 2621.52 1205.97   7
   3  -8   4 1965.46 908.403   6
   3  -8   5 1689.02 1148.08   7
   3  -8   5 1697.73 788.308   6
   3  -8   6 1489.82 1265.07   7
   3  -8   6 1172.81 802.034   6
   3  -8   7 3250.56 1382.01   7
   3  -8   7 1895.35 1020.69   6
   3  -8   8 1550.13 1273.58   7
   3  -8   8 2109.42 1101.08   6
   3  -8   9 600.013 1274.27   7
   3  -8   9 2310.50 1298.56   6
   3  -8  10 1092.47 1089.84   7
   3  -8  10 1094.30 1064.72   6
   3  -8  11 835.776 691.361   6
   3  -8  12 597.263 947.074   6
   3  -8  13-3302.91 1473.73   6
   3  -8  14-745.815 880.763   6
   3  -7 -18 299.782 842.241   7
   3  -7 -17 187.510 898.770   7
   3  -7 -16-230.178 668.694   7
   3  -7 -15 770.201 724.943   7
   3  -7 -14 940.923 846.707   7
   3  -7 -13 1698.55 966.939   7
   3  -7 -12 2512.23 1277.16   7
   3  -7 -11 3442.75 1311.23   7
   3  -7 -10 1361.70 838.122   7
   3  -7  -9 875.142 779.337   7
   3  -7  -8 963.871 779.279   7
   3  -7  -7 2251.86 1012.46   7
   3  -7  -7 3546.18 1170.65   6
   3  -7  -6 6096.76 1533.52   7
   3  -7  -6 7562.53 1554.80   6
   3  -7  -5 9355.30 1950.73   7
   3  -7  -5 10795.8 1815.50   6
   3  -7  -4 7635.41 1770.92   7
   3  -7  -4 8896.63 1659.73   6
   3  -7  -3 4110.77 1361.13   7
   3  -7  -3 2831.52 1070.97   6
   3  -7  -2 21.4254 625.649   7
   3  -7  -2 137.980 433.918   6
   3  -7  -1-581.926 644.683   7
   3  -7  -1-22.7911 393.259   6
   3  -7   0-30.1372 761.586   7
   3  -7   0 1893.98 989.909   6
   3  -7   1 4980.44 1482.79   7
   3  -7   1 7068.87 1533.86   6
   3  -7   2 9452.46 2006.07   7
   3  -7   2 10594.0 1882.70   6
   3  -7   3 12246.3 2285.12   7
   3  -7   3 12909.9 2033.49   6
   3  -7   4 5308.60 1555.13   7
   3  -7   4 6289.48 1609.58   6
   3  -7   5 533.301 914.490   7
   3  -7   5 2183.97 1013.57   6
   3  -7   6 2805.78 1219.94   7
   3  -7   6 2520.68 1292.00   6
   3  -7   7 7062.52 1808.17   7
   3  -7   7 7150.42 1715.40   6
   3  -7   8 3346.28 1319.31   7
   3  -7   8 5569.17 1685.98   6
   3  -7   9 5454.51 1708.92   7
   3  -7   9 2645.90 1246.80   6
   3  -7  10 1940.94 1168.36   7
   3  -7  10 282.668 579.716   6
   3  -7  11-2053.26 1351.01   2
   3  -7  11-654.077 614.694   6
   3  -7  12-906.198 1290.09   2
   3  -7  12 1853.19 1070.98   6
   3  -7  13-1851.85 1131.42   6
   3  -7  14-489.946 939.591   6
   3  -7  15-303.181 860.182   6
   3  -6 -19-84.2795 652.857   7
   3  -6 -18 610.166 658.637   7
   3  -6 -17 72.2226 476.274   7
   3  -6 -16 883.007 745.323   7
   3  -6 -15 2172.31 1172.96   7
   3  -6 -14 1419.56 871.701   7
   3  -6 -13 1998.88 1144.30   7
   3  -6 -12 1034.89 813.116   7
   3  -6 -11 2702.66 945.449   7
   3  -6 -10 2756.04 1012.47   7
   3  -6  -9 4912.65 1358.38   7
   3  -6  -8 5379.62 1352.24   7
   3  -6  -7 3540.67 1146.60   7
   3  -6  -7 3934.42 1213.06   6
   3  -6  -6 1077.66 660.950   7
   3  -6  -6 2565.39 1057.01   6
   3  -6  -5 728.476 616.678   7
   3  -6  -5 1573.15 915.063   6
   3  -6  -4 797.881 653.014   7
   3  -6  -4 2298.57 792.316   6
   3  -6  -3 7291.57 1638.81   7
   3  -6  -3 6676.12 1320.21   6
   3  -6  -2 11163.6 1946.06   7
   3  -6  -2 13230.7 1997.78   6
   3  -6  -1 16058.5 2327.47   7
   3  -6  -1 21754.4 2517.21   6
   3  -6   0 11177.0 2007.30   7
   3  -6   0 14244.2 2038.07   6
   3  -6   1 1687.40 873.602   7
   3  -6   1 3207.61 1039.36   6
   3  -6   2 854.387 758.887   7
   3  -6   2-795.163 717.989   6
   3  -6   3 3132.23 1125.35   7
   3  -6   3 4899.67 1366.65   6
   3  -6   4 7052.25 1638.69   7
   3  -6   4 4774.42 1355.73   6
   3  -6   5 8401.03 1804.68   7
   3  -6   5 10965.5 1976.27   6
   3  -6   6 8144.35 1732.22   7
   3  -6   6 8630.94 1780.92   6
   3  -6   7 3578.07 1283.32   7
   3  -6   7 5159.47 1449.09   6
   3  -6   8 3469.18 1307.87   7
   3  -6   8 552.701 626.367   6
   3  -6   9 497.109 680.233   7
   3  -6   9-324.903 693.461   6
   3  -6  10-1516.56 953.911   2
   3  -6  10 809.530 880.333   6
   3  -6  11-697.366 803.547   2
   3  -6  11 2236.95 1082.82   6
   3  -6  12 742.016 747.309   2
   3  -6  12 1583.29 980.384   6
   3  -6  13 2135.10 1346.98   6
   3  -6  14 1626.92 1165.04   6
   3  -6  15 110.433 1182.85   6
   3  -6  16-346.996 1013.04   6
   3  -6  17 2179.92 1312.24   6
   3  -5 -20-127.271 551.455   7
   3  -5 -19 940.340 758.036   7
   3  -5 -18 148.737 514.555   7
   3  -5 -17 1109.57 991.068   7
   3  -5 -16 334.242 633.650   7
   3  -5 -15-127.554 476.242   7
   3  -5 -14 739.601 671.074   7
   3  -5 -13 2089.60 1020.32   7
   3  -5 -12 2742.74 1145.19   7
   3  -5 -11 4206.25 1360.94   7
   3  -5 -10 2480.86 1048.83   7
   3  -5  -9 760.389 648.369   7
   3  -5  -8-14.0155 422.721   7
   3  -5  -7 5847.53 1330.00   7
   3  -5  -7 7984.53 1680.82   6
   3  -5  -6 14374.6 1997.47   7
   3  -5  -6 14384.8 2037.37   6
   3  -5  -5 21567.8 2466.65   7
   3  -5  -5 23408.4 2627.12   6
   3  -5  -4 17380.5 2196.05   7
   3  -5  -4 22284.8 2487.22   6
   3  -5  -3 6566.00 1398.66   7
   3  -5  -3 5404.39 1216.81   6
   3  -5  -2 854.079 626.663   7
   3  -5  -2 935.839 721.522   6
   3  -5  -1 5142.72 1386.59   7
   3  -5  -1 3861.96 1092.12   6
   3  -5   0 10516.9 1701.80   7
   3  -5   0 14058.2 1978.73   6
   3  -5   1 16572.0 2202.33   7
   3  -5   1 21044.9 2400.76   6
   3  -5   2 19278.7 2325.17   7
   3  -5   2 23298.3 2648.87   6
   3  -5   3 16727.8 2173.60   7
   3  -5   3 17957.9 2318.09   6
   3  -5   4 6463.52 1477.91   7
   3  -5   4 6433.90 1513.83   6
   3  -5   5 2212.68 1012.15   7
   3  -5   5 1642.43 851.007   6
   3  -5   6 3287.50 1113.20   7
   3  -5   6 7311.31 1706.87   6
   3  -5   7 4888.27 1315.50   7
   3  -5   7 2374.36 1023.17   6
   3  -5   8 9181.15 1746.34   7
   3  -5   8 8881.89 1851.78   6
   3  -5   9 8070.35 1692.71   2
   3  -5   9 9721.63 2147.35   6
   3  -5  10 4130.08 1246.97   2
   3  -5  10 6574.78 1871.28   6
   3  -5  11 2083.65 1032.09   2
   3  -5  11 1955.44 1192.03   6
   3  -5  12-490.779 825.357   2
   3  -5  12 154.572 1076.78   6
   3  -5  13 2843.37 1597.92   6
   3  -5  14 12.0230 878.529   6
   3  -5  15 3351.89 1827.86   6
   3  -5  16 267.412 913.859   6
   3  -5  17 2376.79 1722.23   6
   3  -5  18 2148.01 1576.86   6
   3  -4 -21-1499.36 1159.99   7
   3  -4 -20 728.112 800.516   7
   3  -4 -19 999.226 825.560   7
   3  -4 -18 1065.28 955.391   7
   3  -4 -17-200.199 519.828   7
   3  -4 -16 1259.97 954.388   7
   3  -4 -15 1965.56 1035.01   7
   3  -4 -14 559.078 641.756   7
   3  -4 -13 1659.39 795.794   7
   3  -4 -12-264.385 345.902   7
   3  -4 -11 2843.53 1015.28   7
   3  -4 -10 6160.69 1379.24   7
   3  -4  -9 15272.2 2061.62   7
   3  -4  -8 10480.3 1686.83   7
   3  -4  -7 7174.41 1350.39   7
   3  -4  -7 9461.20 1681.91   6
   3  -4  -6 2002.17 693.341   7
   3  -4  -6 3173.20 1084.85   6
   3  -4  -5 1173.99 631.374   7
   3  -4  -5-394.125 832.523   6
   3  -4  -4 6358.46 1244.71   7
   3  -4  -4 5002.74 1285.10   6
   3  -4  -3 22078.9 2306.00   7
   3  -4  -3 23942.5 2545.53   6
   3  -4  -2 35391.7 2930.99   7
   3  -4  -2 42808.0 3353.99   6
   3  -4  -1 52457.4 3591.08   7
   3  -4  -1 52359.2 3730.22   6
   3  -4   0 21579.4 2263.90   7
   3  -4   0 22230.9 2463.20   6
   3  -4   1 4738.94 1039.94   7
   3  -4   1 5909.29 1240.64   6
   3  -4   2 830.866 753.712   7
   3  -4   2 961.619 732.527   6
   3  -4   3 16168.8 1927.08   7
   3  -4   3 16253.4 2118.13   6
   3  -4   4 30539.1 2673.87   7
   3  -4   4 36306.1 3201.40   6
   3  -4   5 29116.0 2629.61   7
   3  -4   5 28592.4 3004.15   6
   3  -4   6 12274.7 1667.50   7
   3  -4   6 12471.3 1918.49   6
   3  -4   7 6737.50 1335.82   7
   3  -4   7 7361.61 1613.55   6
   3  -4   8 1771.07 854.402   7
   3  -4   8 1186.60 513.695   6
   3  -4   9-1216.24 918.564   2
   3  -4   9 371.963 665.379   6
   3  -4  10 1470.40 828.607   2
   3  -4  10 3266.75 1422.06   6
   3  -4  11 3716.60 1130.42   2
   3  -4  11 7522.00 1881.52   6
   3  -4  12 1896.83 869.971   2
   3  -4  12 4962.66 1776.80   6
   3  -4  13 3097.08 1671.18   6
   3  -4  14 2997.89 1693.98   6
   3  -4  15 436.425 805.598   6
   3  -4  16 994.669 1372.87   6
   3  -4  17 778.095 1178.46   6
   3  -4  18 1398.39 1403.82   6
   3  -3 -21-618.419 872.142   7
   3  -3 -20-632.333 780.253   7
   3  -3 -19 669.395 648.516   7
   3  -3 -18 594.713 568.066   7
   3  -3 -17 453.403 722.868   7
   3  -3 -16-101.424 389.332   7
   3  -3 -15 2294.15 1053.69   7
   3  -3 -14 1772.80 850.367   7
   3  -3 -13 4975.60 1331.81   7
   3  -3 -13 2841.18 766.943   5
   3  -3 -12 3544.32 1047.77   7
   3  -3 -12 3817.80 909.809   5
   3  -3 -11 2855.26 977.441   7
   3  -3 -11 2037.38 640.640   5
   3  -3 -10 715.443 368.877   7
   3  -3 -10 1223.94 500.100   5
   3  -3  -9 49.9103 424.172   7
   3  -3  -9 92.6059 308.453   5
   3  -3  -8 740.687 649.917   7
   3  -3  -8 1151.02 435.004   5
   3  -3  -7 6887.97 1266.25   7
   3  -3  -7 7320.53 1530.89   6
   3  -3  -7 6546.06 920.359   5
   3  -3  -6 29600.7 2562.13   7
   3  -3  -6 26503.4 1794.96   5
   3  -3  -5 42473.0 3010.07   7
   3  -3  -5 44168.9 3590.64   6
   3  -3  -4 26772.9 2368.12   7
   3  -3  -4 34310.8 2922.15   6
   3  -3  -3 6945.12 1207.69   7
   3  -3  -3 7075.55 1374.89   6
   3  -3  -2 1359.65 609.589   7
   3  -3  -2 1314.22 731.143   6
   3  -3  -1 12152.0 822.890   8
   3  -3  -1 13954.3 1703.00   7
   3  -3  -1 16683.5 2018.36   6
   3  -3   0 14399.9 1642.80   7
   3  -3   0 11412.4 1708.65   6
   3  -3   1 29669.2 2401.42   7
   3  -3   1 31169.5 2802.67   6
   3  -3   2 32985.5 2601.19   7
   3  -3   2 38584.2 3154.72   6
   3  -3   3 27626.6 2282.36   7
   3  -3   3 29126.4 2761.28   6
   3  -3   4 18880.5 1889.09   7
   3  -3   4 20511.4 2428.28   6
   3  -3   5 1950.46 667.249   7
   3  -3   5 1440.61 619.250   6
   3  -3   6 3359.24 813.879   7
   3  -3   6 2051.89 917.213   6
   3  -3   7 7408.09 1300.69   7
   3  -3   7 8312.35 1631.71   6
   3  -3   8 38776.2 2970.68   7
   3  -3   8 46008.1 3979.11   6
   3  -3   9 13848.5 1830.23   2
   3  -3   9 14828.1 2431.34   6
   3  -3  10 7975.65 1423.89   2
   3  -3  10 8717.59 1828.24   6
   3  -3  11 1459.50 573.517   2
   3  -3  11 920.430 983.706   6
   3  -3  12 934.179 972.575   6
   3  -3  13 1018.87 799.474   1
   3  -3  13 438.583 1315.13   6
   3  -3  14 2947.32 1625.82   6
   3  -3  14-26.3251 835.395   1
   3  -3  15 2963.10 1392.66   6
   3  -3  15 2063.99 1210.45   1
   3  -3  16 2064.11 1467.82   6
   3  -3  16 1053.57 887.907   1
   3  -3  17 1048.96 1409.81   6
   3  -3  17 2482.42 1090.43   1
   3  -3  18 2813.60 1548.61   6
   3  -3  18-637.656 1025.93   1
   3  -3  19-503.942 977.671   6
   3  -3  19 639.034 1005.39   1
   3  -3  20 102.343 811.252   1
   3  -2 -22 1804.54 1202.78   7
   3  -2 -21 1766.29 938.173   7
   3  -2 -20 982.759 870.527   7
   3  -2 -19 753.354 880.364   7
   3  -2 -18 513.753 695.381   7
   3  -2 -17 1944.88 864.073   7
   3  -2 -16 1062.65 676.417   7
   3  -2 -16 1367.20 807.457   5
   3  -2 -15 1145.97 523.342   7
   3  -2 -15 1802.18 869.800   5
   3  -2 -14 4097.80 1299.84   7
   3  -2 -14 4625.18 1205.35   5
   3  -2 -13 2969.95 1095.15   7
   3  -2 -13 3516.75 978.949   5
   3  -2 -12 456.147 574.931   7
   3  -2 -12 124.320 377.653   5
   3  -2 -11 5100.49 1249.77   7
   3  -2 -11 6124.09 1194.09   5
   3  -2 -10 20392.9 2318.04   7
   3  -2 -10 19183.9 1991.16   5
   3  -2  -9 35980.0 2973.90   7
   3  -2  -9 31815.9 2427.49   5
   3  -2  -8 23628.6 2357.75   7
   3  -2  -8 24525.5 2031.64   5
   3  -2  -7 14169.1 1757.71   7
   3  -2  -7 13992.9 2090.91   6
   3  -2  -7 11777.6 1356.22   5
   3  -2  -6-80.8301 364.693   7
   3  -2  -6 237.207 690.144   6
   3  -2  -6 644.237 377.129   5
   3  -2  -5 6842.25 1139.78   7
   3  -2  -5 7059.72 1344.37   6
   3  -2  -5 6415.56 938.210   5
   3  -2  -4 19578.2 1874.18   7
   3  -2  -4 19955.4 2188.61   6
   3  -2  -4 18019.3 1576.06   5
   3  -2  -3 36936.0 2556.90   7
   3  -2  -3 45204.2 3285.24   6
   3  -2  -2 59221.6 3121.51   7
   3  -2  -2 67400.6 3911.10   6
   3  -2  -1 62544.5 2361.52   8
   3  -2  -1 68562.8 3458.27   7
   3  -2   0 31723.8 2205.83   7
   3  -2   0 33537.0 2757.96   6
   3  -2   1 12940.7 1351.79   7
   3  -2   1 11463.1 1677.41   6
   3  -2   2 18217.5 1596.38   7
   3  -2   2 16713.7 1982.52   6
   3  -2   3 47057.2 2719.75   7
   3  -2   3 52265.9 3577.55   6
   3  -2   4 47571.6 2759.17   7
   3  -2   4 55278.1 3761.80   6
   3  -2   5 40656.6 2440.64   7
   3  -2   5 43201.6 3444.60   6
   3  -2   6 27270.6 2060.88   7
   3  -2   6 27264.5 2722.42   6
   3  -2   7 8242.60 1106.69   7
   3  -2   7 9108.27 1534.08   6
   3  -2   8 542.004 405.752   7
   3  -2   8 981.999 781.809   6
   3  -2   9 2437.51 768.494   7
   3  -2   9 3055.27 1341.04   6
   3  -2  10 3490.56 674.916   2
   3  -2  10 8321.10 1574.87   1
   3  -2  10 7408.86 1925.97   6
   3  -2  11 8421.96 1247.02   2
   3  -2  11 10651.2 2155.15   6
   3  -2  11 9469.28 1696.96   1
   3  -2  12 8779.07 2086.94   6
   3  -2  12 7863.70 1669.72   1
   3  -2  13 4810.09 1923.85   6
   3  -2  13 4280.97 1367.85   1
   3  -2  14 1056.94 759.590   6
   3  -2  14 1247.52 872.903   1
   3  -2  15 2834.95 1767.39   6
   3  -2  15 475.773 734.381   1
   3  -2  16 1267.21 1273.31   6
   3  -2  16 244.362 631.565   1
   3  -2  17 2804.89 1847.59   6
   3  -2  17 1108.19 1023.46   1
   3  -2  18 3122.20 1970.62   6
   3  -2  18-192.358 668.140   1
   3  -2  19 1328.87 1753.26   6
   3  -2  19 358.935 997.757   1
   3  -2  20 1980.05 1708.37   6
   3  -2  20 1079.43 1102.20   1
   3  -2  21 1108.28 1242.90   1
   3  -1 -21 1376.55 1062.94   7
   3  -1 -20 966.933 674.550   7
   3  -1 -19 1034.72 996.799   7
   3  -1 -19 1193.14 974.900   5
   3  -1 -18 996.093 944.148   7
   3  -1 -18-797.820 698.765   5
   3  -1 -17-217.761 446.832   7
   3  -1 -17 216.006 683.863   5
   3  -1 -16-1022.50 792.372   7
   3  -1 -16-237.929 592.851   5
   3  -1 -15 1118.55 830.379   7
   3  -1 -15 1741.88 941.109   5
   3  -1 -14 2829.83 1058.22   7
   3  -1 -14 1874.40 897.476   5
   3  -1 -13 8285.00 1635.55   7
   3  -1 -13 6888.60 1432.21   5
   3  -1 -12 2676.42 932.741   7
   3  -1 -12 2988.49 972.615   5
   3  -1 -11 119.006 374.027   7
   3  -1 -11 1111.05 587.336   5
   3  -1 -10 2597.50 1084.59   7
   3  -1 -10 1262.24 642.714   5
   3  -1  -9 217.640 401.098   7
   3  -1  -9 514.416 424.818   5
   3  -1  -8 1149.93 708.082   7
   3  -1  -8 1606.88 589.531   5
   3  -1  -7 8873.14 1375.98   7
   3  -1  -7 8601.39 1232.97   5
   3  -1  -6 37624.7 2715.62   7
   3  -1  -6 42034.7 3324.94   6
   3  -1  -6 38938.3 2582.33   5
   3  -1  -5 49864.5 3112.00   7
   3  -1  -5 54095.9 3740.18   6
   3  -1  -5 51294.3 2975.71   5
   3  -1  -4 44261.5 2782.67   7
   3  -1  -4 49564.5 3494.67   6
   3  -1  -4 42332.1 2601.61   5
   3  -1  -3 12427.2 929.763   8
   3  -1  -3 12448.2 1379.76   7
   3  -1  -3 15405.5 1813.18   6
   3  -1  -3 14191.8 1447.92   5
   3  -1  -2 145.906 222.466   8
   3  -1  -2 319.309 374.603   7
   3  -1  -2 493.779 473.662   6
   3  -1  -1 14394.5 1086.74   8
   3  -1  -1 13140.2 1283.98   7
   3  -1  -1 13941.2 1640.41   6
   3  -1   0 39838.3 2077.77   8
   3  -1   0 39008.8 2244.35   7
   3  -1   0 45598.5 3082.77   6
   3  -1   1 110936. 4257.32   8
   3  -1   1 110811. 4174.44   7
   3  -1   2 39975.4 2144.95   7
   3  -1   2 45830.4 3091.76   6
   3  -1   3 45614.5 2247.11   7
   3  -1   3 50404.6 3419.04   6
   3  -1   4 12637.0 1093.16   7
   3  -1   4 15588.8 1912.64   6
   3  -1   5 326.484 287.851   7
   3  -1   5-407.874 637.705   6
   3  -1   6 9291.89 937.553   7
   3  -1   6 11113.2 1713.55   6
   3  -1   7 20884.0 1401.31   7
   3  -1   7 29382.3 2823.13   6
   3  -1   8 28226.1 1679.58   7
   3  -1   8 35158.0 2674.75   1
   3  -1   8 35859.0 3390.00   6
   3  -1   9 6777.83 828.513   7
   3  -1   9 7283.93 1618.09   6
   3  -1   9 5732.77 1305.16   1
   3  -1  10 18417.9 1424.61   7
   3  -1  10 20166.8 2246.95   1
   3  -1  11 6053.24 1727.37   6
   3  -1  11 5263.80 1279.55   1
   3  -1  12 769.892 918.008   6
   3  -1  12 339.258 563.654   1
   3  -1  13 2488.15 1475.09   6
   3  -1  13 913.536 749.199   1
   3  -1  14 4406.36 1339.58   1
   3  -1  14 3396.63 1848.72   6
   3  -1  15 5495.15 1530.31   1
   3  -1  15 7684.31 2146.92   6
   3  -1  16 2728.10 1042.10   1
   3  -1  16 7234.29 2210.49   6
   3  -1  17 339.958 632.698   1
   3  -1  17 2794.90 1548.37   6
   3  -1  18-594.664 860.198   1
   3  -1  18 4688.33 1934.31   6
   3  -1  19 131.708 613.925   1
   3  -1  19 3039.02 1623.48   6
   3  -1  20 1216.53 918.710   1
   3  -1  20 1497.33 1664.83   6
   3  -1  21 3377.38 2135.38   6
   3  -1  21 574.120 746.046   1
   3  -1  22 171.171 821.013   1
   3   0 -22-201.511 618.690   5
   3   0 -21 831.073 878.072   5
   3   0 -20-601.595 1014.37   5
   3   0 -19 1614.40 994.838   7
   3   0 -19 1094.25 986.007   5
   3   0 -18 162.386 440.753   7
   3   0 -18 292.187 504.276   5
   3   0 -17 1538.34 856.159   7
   3   0 -17-1336.21 839.689   5
   3   0 -16 935.651 725.249   7
   3   0 -16 1590.95 738.553   5
   3   0 -15 1990.34 1083.01   7
   3   0 -15 3907.58 1346.52   5
   3   0 -14 2128.73 1091.49   7
   3   0 -14 2820.25 1070.98   5
   3   0 -13 419.138 607.828   7
   3   0 -13 608.468 779.746   5
   3   0 -12 1405.69 815.352   7
   3   0 -12 505.382 495.918   5
   3   0 -11 6230.70 1367.73   7
   3   0 -11 7062.80 1450.35   5
   3   0 -10 17598.8 2159.20   7
   3   0 -10 18244.7 2161.34   5
   3   0  -9 26984.7 2507.98   7
   3   0  -9 28346.8 2619.89   5
   3   0  -8 24869.0 2340.37   7
   3   0  -8 22325.4 2309.36   5
   3   0  -7 9667.47 1417.11   7
   3   0  -7 7854.36 1310.54   5
   3   0  -6 445.969 514.855   7
   3   0  -6 120.283 388.258   6
   3   0  -6 723.245 536.475   5
   3   0  -5 3185.77 792.527   7
   3   0  -5 3692.75 1079.64   6
   3   0  -5 4565.34 1006.31   5
   3   0  -4 31311.3 2303.82   7
   3   0  -4 34893.6 2763.53   6
   3   0  -4 36408.0 2513.24   5
   3   0  -3 74414.4 3242.73   8
   3   0  -3 77984.9 3626.09   7
   3   0  -3 87067.9 4423.34   6
   3   0  -3 80060.6 3863.81   5
   3   0  -2 107913. 4077.45   8
   3   0  -2 107187. 4345.82   7
   3   0  -2 115250. 4843.44   5
   3   0  -1 77927.9 3349.44   8
   3   0  -1 78912.7 3423.02   7
   3   0  -1 83387.8 3965.95   5
   3   0   0 19313.4 1526.69   8
   3   0   0 17500.2 1335.07   7
   3   0   0 19893.5 1934.71   6
   3   0   1-72.0291 275.968   8
   3   0   1 85.7415 160.372   7
   3   0   1-106.402 622.847   6
   3   0   2 46307.2 2678.20   8
   3   0   2 42848.3 2003.52   7
   3   0   2 47962.0 3116.70   6
   3   0   3 15702.7 1013.92   7
   3   0   3 15688.4 1755.84   6
   3   0   4 63089.6 2235.21   7
   3   0   4 73086.8 3998.85   6
   3   0   5 64212.8 2093.96   7
   3   0   5 76735.8 4291.98   6
   3   0   6 32025.3 1137.90   7
   3   0   6 44000.5 3192.38   6
   3   0   7 10911.3 1308.67   1
   3   0   7 12105.6 1900.93   6
   3   0   8 1106.88 828.243   6
   3   0   8 776.738 562.733   1
   3   0   9 6875.60 1534.38   6
   3   0   9 4758.76 970.585   1
   3   0  10 25128.5 2344.65   1
   3   0  10 31292.8 3363.52   6
   3   0  11 20589.9 2267.85   1
   3   0  11 25676.5 3155.97   6
   3   0  12 10959.9 1721.58   1
   3   0  12 10601.7 2076.66   6
   3   0  13 1885.35 909.069   1
   3   0  13 2453.38 1215.91   6
   3   0  14 233.034 634.040   1
   3   0  14 1372.65 1259.65   6
   3   0  15-853.548 645.815   1
   3   0  15 2083.12 1158.29   6
   3   0  16 705.915 725.197   1
   3   0  16 3364.52 1582.12   6
   3   0  17-865.190 631.322   1
   3   0  17-169.926 759.599   6
   3   0  18 905.351 1030.14   1
   3   0  18 2202.00 1571.75   6
   3   0  19-456.149 696.522   1
   3   0  19 2391.82 1666.98   6
   3   0  20 121.252 598.613   1
   3   0  20 1968.49 1549.64   6
   3   0  21 1825.16 1294.07   1
   3   0  21 1380.19 1655.97   6
   3   1 -22-270.135 716.163   5
   3   1 -21 181.769 847.694   5
   3   1 -20-2141.53 1176.98   5
   3   1 -19-27.0123 581.612   5
   3   1 -18-1308.96 746.512   5
   3   1 -17-129.268 532.650   5
   3   1 -16-176.169 691.020   5
   3   1 -15 1432.87 974.737   7
   3   1 -15-369.644 618.821   5
   3   1 -14 4471.46 1339.48   7
   3   1 -14 2776.81 1228.79   5
   3   1 -13 6075.71 1409.19   7
   3   1 -13 9180.02 1886.06   5
   3   1 -12 3554.83 1070.65   7
   3   1 -12 4456.62 1394.56   5
   3   1 -11 8620.29 1541.88   7
   3   1 -11 9205.66 1681.78   5
   3   1 -10 2982.00 1017.62   7
   3   1 -10 1953.85 858.553   5
   3   1  -9 125.781 382.854   7
   3   1  -9 876.545 609.206   5
   3   1  -8 8982.65 1433.79   7
   3   1  -8 8698.35 1504.96   5
   3   1  -7 27389.8 2401.42   7
   3   1  -7 26879.1 2606.57   5
   3   1  -6 46018.2 3012.94   7
   3   1  -6 44820.1 3192.29   5
   3   1  -5 34870.3 2537.89   7
   3   1  -5 36878.7 2949.48   6
   3   1  -5 34143.5 2713.89   5
   3   1  -4 16351.8 1572.33   7
   3   1  -4 17710.2 1990.82   6
   3   1  -4 17346.7 1821.52   5
   3   1  -3 2810.08 632.870   8
   3   1  -3 3797.82 767.684   7
   3   1  -3 3543.56 991.130   6
   3   1  -3 3769.33 951.437   5
   3   1  -2 841.415 449.001   8
   3   1  -2 489.271 258.862   7
   3   1  -2 541.698 378.321   6
   3   1  -2 460.281 433.992   5
   3   1  -1 12710.4 1326.65   8
   3   1  -1 12883.8 1200.10   7
   3   1  -1 14246.8 1624.28   6
   3   1  -1 13828.5 1585.15   5
   3   1   0 40943.9 2524.61   8
   3   1   0 40098.3 2110.03   7
   3   1   0 43975.8 2790.65   6
   3   1   0 42010.8 2860.49   5
   3   1   1 68382.9 3338.66   8
   3   1   1 62636.5 2592.30   7
   3   1   1 68044.8 3515.21   6
   3   1   2 71831.2 3583.38   8
   3   1   2 65090.3 2560.95   7
   3   1   2 74911.9 3791.88   6
   3   1   3 133562. 5353.55   8
   3   1   3 131187. 5386.37   6
   3   1   4 6372.28 1200.15   8
   3   1   4 6185.84 1090.95   6
   3   1   5 2334.43 802.845   6
   3   1   6 24595.6 1614.13   1
   3   1   6 28187.0 2508.69   6
   3   1   7 39180.7 2244.42   1
   3   1   7 46540.1 3331.11   6
   3   1   8 32768.2 2228.27   1
   3   1   8 41216.0 3303.86   6
   3   1   9 21362.2 1877.91   1
   3   1   9 26338.6 2785.54   6
   3   1  10 17110.6 1802.79   1
   3   1  10 20744.0 2603.68   6
   3   1  11 447.421 435.168   1
   3   1  11 979.684 773.893   6
   3   1  12 604.633 597.098   1
   3   1  12 1415.28 974.807   6
   3   1  13 2467.86 870.142   1
   3   1  13 2598.55 1286.54   6
   3   1  14 4830.15 1199.85   1
   3   1  14 6627.09 1844.84   6
   3   1  15 8176.75 1638.94   1
   3   1  15 10295.7 2368.50   6
   3   1  16 3828.53 1252.82   1
   3   1  16 4772.10 1892.10   6
   3   1  17 2311.42 1217.38   1
   3   1  17 1309.33 1206.43   6
   3   1  18 285.245 682.476   1
   3   1  18 1461.75 1287.40   6
   3   1  19-897.167 932.239   1
   3   1  19 1668.92 1795.13   6
   3   1  20 1260.66 895.000   1
   3   1  20 1656.41 1756.48   6
   3   1  21 5372.59 2217.38   6
   3   2 -21-311.161 581.985   5
   3   2 -20 53.5486 678.012   5
   3   2 -19 541.755 893.208   5
   3   2 -18-192.002 665.324   5
   3   2 -17 2268.32 1308.91   5
   3   2 -16 664.518 880.916   5
   3   2 -15 1099.40 704.682   5
   3   2 -14 950.210 937.173   5
   3   2 -13 491.821 749.665   5
   3   2 -12 819.014 909.464   5
   3   2 -11 5708.28 1559.55   5
   3   2 -10 12079.4 1887.43   5
   3   2  -9 19893.8 2234.50   7
   3   2  -9 20527.5 2418.65   5
   3   2  -8 18763.8 2159.36   7
   3   2  -8 18318.7 2215.23   5
   3   2  -7 9228.76 1432.04   7
   3   2  -7 6791.35 1248.19   5
   3   2  -6 631.880 578.084   7
   3   2  -6 765.480 601.790   5
   3   2  -5 9169.68 1303.30   7
   3   2  -5 8337.46 1405.95   5
   3   2  -4 43196.2 2762.21   7
   3   2  -4 43279.8 3112.73   6
   3   2  -4 43869.7 3134.08   5
   3   2  -3 95267.8 4605.16   8
   3   2  -3 92550.9 4154.39   7
   3   2  -3 96792.2 4746.98   6
   3   2  -3 98573.3 4867.83   5
   3   2  -2 97488.0 4553.38   8
   3   2  -2 96436.9 4519.94   6
   3   2  -2 96732.7 4740.39   5
   3   2  -1 53247.7 3103.62   8
   3   2  -1 53817.7 3149.23   6
   3   2  -1 53684.3 3380.26   5
   3   2   0 8727.84 1257.95   8
   3   2   0 9051.81 1262.48   6
   3   2   0 9176.80 1416.42   5
   3   2   1 1451.07 244.021   9
   3   2   1 1815.90 583.305   8
   3   2   1 3118.71 734.839   6
   3   2   1 2910.98 935.760   5
   3   2   2 26929.6 2234.23   8
   3   2   2 25898.1 2051.99   6
   3   2   3 46938.2 3085.99   8
   3   2   3 44056.8 2778.47   6
   3   2   4 99291.2 4925.80   8
   3   2   4 99824.0 4529.98   6
   3   2   5 27283.1 2451.98   8
   3   2   5 28156.0 2242.58   6
   3   2   6 27702.2 2660.47   8
   3   2   6 24415.5 1375.26   1
   3   2   6 30515.5 2460.12   6
   3   2   7 10696.2 994.244   1
   3   2   7 12683.6 1660.12   6
   3   2   8 686.260 389.083   1
   3   2   8-523.997 487.433   6
   3   2   9 7361.91 1004.61   1
   3   2   9 8781.04 1556.69   6
   3   2  10 18449.9 2361.41   6
   3   2  10 16099.3 1594.84   1
   3   2  11 12056.9 1464.44   1
   3   2  11 13532.6 2112.25   6
   3   2  12 10141.6 1466.75   1
   3   2  12 13904.6 2285.91   6
   3   2  13 5098.25 1138.90   1
   3   2  13 5400.98 1563.96   6
   3   2  14 1353.35 662.508   1
   3   2  14 1955.11 1223.56   6
   3   2  15 125.610 607.349   1
   3   2  15 2339.52 1230.72   6
   3   2  16 1248.71 775.933   1
   3   2  16 2252.12 1394.58   6
   3   2  17 2004.22 906.635   1
   3   2  17 4048.10 1814.47   6
   3   2  18 1629.09 894.145   1
   3   2  18 951.716 1205.86   6
   3   2  19 1276.60 996.520   1
   3   2  19 78.1923 1079.69   6
   3   2  20 2437.34 1691.55   6
   3   2  21 2233.06 1531.77   6
   3   2  22 2664.22 1867.54   6
   3   3 -20-6.14578 548.738   5
   3   3 -19 560.345 880.492   5
   3   3 -18 1467.04 913.475   5
   3   3 -17 514.944 829.881   5
   3   3 -16-745.415 515.557   5
   3   3 -15 1062.25 746.736   5
   3   3 -14 2989.05 1250.22   5
   3   3 -13 5243.58 1515.53   5
   3   3 -12 7138.74 1867.73   5
   3   3 -11 6081.69 1596.76   5
   3   3 -10 1170.93 916.142   5
   3   3  -9 2450.10 1037.21   5
   3   3  -8 9172.25 1733.79   5
   3   3  -7 24034.6 2614.30   5
   3   3  -6 31929.3 2953.08   5
   3   3  -5 35272.3 3069.29   5
   3   3  -4 19745.0 2206.07   5
   3   3  -3 3547.57 943.379   8
   3   3  -3 3307.95 894.197   6
   3   3  -3 3329.43 991.308   5
   3   3  -2 4145.06 1025.04   8
   3   3  -2 4188.54 853.457   6
   3   3  -2 4851.34 1177.51   5
   3   3  -1 27752.8 2394.04   8
   3   3  -1 25522.2 2083.36   6
   3   3  -1 27899.6 2466.00   5
   3   3   0 65756.8 3801.69   8
   3   3   0 66912.5 3390.94   6
   3   3   0 63831.0 3912.27   5
   3   3   1 94790.7 4767.25   8
   3   3   1 97322.8 4239.12   6
   3   3   1 101140. 4955.60   5
   3   3   2 92036.5 4704.62   8
   3   3   2 93672.5 4110.93   6
   3   3   3 32622.3 2689.29   8
   3   3   3 33110.4 2244.38   6
   3   3   4 343.123 529.127   8
   3   3   4 815.227 476.028   6
   3   3   5 1830.19 248.079   1
   3   3   5 2902.44 731.479   6
   3   3   6 39788.9 3190.74   8
   3   3   6 40236.2 2712.72   6
   3   3   6 31235.8 1473.43   1
   3   3   7 48187.1 3641.83   8
   3   3   7 48096.6 3070.01   6
   3   3   7 39535.5 1930.66   1
   3   3   8 35475.9 3325.23   8
   3   3   8 36218.0 2847.04   6
   3   3   8 32715.7 1921.22   1
   3   3   9 17643.8 2385.31   8
   3   3   9 17599.5 2051.19   6
   3   3   9 14205.5 1331.27   1
   3   3  10 4445.88 1220.83   6
   3   3  10 3490.40 780.083   1
   3   3  11 1634.87 846.976   6
   3   3  11-242.439 299.727   1
   3   3  12 1758.45 984.190   6
   3   3  12-437.271 415.398   1
   3   3  13 5723.78 1524.59   6
   3   3  13 5930.57 1174.73   1
   3   3  14 6131.76 1617.54   6
   3   3  14 3217.43 913.910   1
   3   3  15 6001.66 1646.24   6
   3   3  15 2457.34 901.538   1
   3   3  16 2700.93 988.659   1
   3   3  16 2952.68 1389.54   6
   3   3  17 1201.05 837.049   1
   3   3  17 3430.93 1560.41   6
   3   3  18 2844.37 1494.77   6
   3   3  19 3296.81 1799.50   6
   3   3  20 2454.88 1787.91   6
   3   3  21 752.628 1296.69   6
   3   3  22 2066.59 1874.90   6
   3   4 -19-385.256 825.248   5
   3   4 -18 2.34569 808.166   5
   3   4 -17 1344.47 1038.18   5
   3   4 -16 1142.40 989.068   5
   3   4 -15 852.362 924.717   5
   3   4 -14-2151.79 1064.31   5
   3   4 -13 818.302 792.246   5
   3   4 -12 2340.97 1127.00   5
   3   4 -11 6998.05 1701.41   5
   3   4 -10 6368.60 1535.28   5
   3   4  -9 9308.75 1861.54   5
   3   4  -8 8446.91 1739.35   5
   3   4  -7 3831.65 1176.98   5
   3   4  -6 372.511 685.246   5
   3   4  -5 4900.44 1356.57   5
   3   4  -4 20057.9 2322.08   5
   3   4  -3 41687.8 3451.09   8
   3   4  -3 43140.1 3388.27   5
   3   4  -2 44892.6 1575.93   9
   3   4  -2 54124.2 3629.13   8
   3   4  -2 51884.7 3687.52   5
   3   4  -1 34777.8 1431.48   9
   3   4  -1 43783.2 3337.61   8
   3   4  -1 43318.2 2611.65   6
   3   4  -1 42004.0 3195.71   5
   3   4   0 7483.52 686.032   9
   3   4   0 9191.76 1155.25   6
   3   4   0 10194.1 1570.41   5
   3   4   1 836.367 185.093   1
   3   4   1 902.895 532.390   8
   3   4   1 1479.25 476.226   6
   3   4   1 447.333 776.259   5
   3   4   2 19488.3 2165.14   8
   3   4   2 21350.6 1677.29   6
   3   4   2 16934.2 878.982   1
   3   4   2 21344.2 2312.35   5
   3   4   3 37611.4 3050.05   8
   3   4   3 38518.5 2273.84   6
   3   4   4 43822.1 3265.73   8
   3   4   4 39360.4 2321.78   6
   3   4   5 32554.8 2913.29   8
   3   4   5 30537.9 2129.76   6
   3   4   5 26523.3 1272.58   1
   3   4   6 42760.2 3496.94   8
   3   4   6 42874.0 2665.83   6
   3   4   6 36952.5 1729.71   1
   3   4   7 4898.18 1259.87   8
   3   4   7 6173.86 750.964   1
   3   4   7 7368.00 1169.95   6
   3   4   8 803.718 802.513   8
   3   4   8 21.5105 475.223   6
   3   4   8 226.866 281.856   1
   3   4   9 2824.25 1131.42   8
   3   4   9 4150.86 717.798   1
   3   4   9 3869.05 1007.47   6
   3   4  10 15116.2 2407.21   8
   3   4  10 15734.6 1954.51   6
   3   4  10 13255.1 1405.50   1
   3   4  11 23815.6 3087.41   8
   3   4  11 22491.9 2503.93   6
   3   4  11 19773.6 1843.06   1
   3   4  12 15164.4 2619.99   8
   3   4  12 17700.8 2294.23   6
   3   4  12 16154.0 1755.41   1
   3   4  13 7221.44 1815.07   8
   3   4  13 3849.94 970.432   1
   3   4  13 4264.27 1291.04   6
   3   4  14 2002.09 1180.01   8
   3   4  14 347.211 479.584   1
   3   4  14 647.138 818.885   6
   3   4  15-144.085 361.517   1
   3   4  15 639.332 676.722   6
   3   4  16 2756.52 1380.55   6
   3   4  17 2237.74 1378.54   6
   3   4  18 3062.46 1419.82   6
   3   4  19 2495.81 1619.51   6
   3   4  20 1968.82 1377.99   6
   3   4  21 1620.76 1621.08   6
   3   4  22 591.362 1069.11   6
   3   5 -18-540.973 989.824   5
   3   5 -17 195.311 663.339   5
   3   5 -16-1045.22 763.822   5
   3   5 -15 548.406 1020.10   5
   3   5 -14 2637.33 1152.65   5
   3   5 -13 3129.36 1382.57   5
   3   5 -12 3202.68 1231.84   5
   3   5 -11 3098.67 1338.10   5
   3   5 -10 973.888 792.910   5
   3   5  -9-443.212 945.849   5
   3   5  -8 13458.0 2250.05   5
   3   5  -7 31162.2 3223.75   5
   3   5  -6 36565.3 3516.80   5
   3   5  -5 26447.1 2851.50   5
   3   5  -4 4052.14 578.912   9
   3   5  -4 4474.33 1285.00   5
   3   5  -3 1677.41 351.447   9
   3   5  -3 1413.43 998.092   8
   3   5  -3 1212.87 944.352   5
   3   5  -2 17484.2 1213.66   9
   3   5  -2 19908.9 2400.19   8
   3   5  -2 19043.0 2307.30   5
   3   5  -1 27618.2 1637.55   9
   3   5  -1 32799.5 2960.63   8
   3   5  -1 33756.9 2982.55   5
   3   5   0 29958.9 1809.34   9
   3   5   0 38069.1 3187.53   8
   3   5   0 37194.1 3060.48   5
   3   5   1 31234.4 2957.15   8
   3   5   1 29406.6 1933.66   6
   3   5   1 32530.1 2913.88   5
   3   5   2 23966.0 2612.36   8
   3   5   2 24703.1 1731.49   6
   3   5   2 26234.5 2639.77   5
   3   5   3 12507.4 1918.15   8
   3   5   3 12206.0 1199.89   6
   3   5   4 2943.39 1155.73   8
   3   5   4 1562.66 482.302   6
   3   5   5 4603.41 1234.46   8
   3   5   5 4592.55 741.625   6
   3   5   6 40993.4 3501.11   8
   3   5   6 36692.9 2307.48   6
   3   5   7 30680.5 3128.04   8
   3   5   7 28229.7 2106.40   6
   3   5   8 23685.0 2750.90   8
   3   5   8 23503.5 2004.69   6
   3   5   8 19804.2 1572.42   1
   3   5   9 8856.53 1775.02   8
   3   5   9 6375.61 942.384   1
   3   5   9 7778.70 1230.57   6
   3   5  10 1664.99 623.312   1
   3   5  10 2031.30 770.185   6
   3   5  11-591.293 630.912   8
   3   5  11 404.454 346.558   1
   3   5  11 202.345 364.956   6
   3   5  12 1903.44 1276.88   8
   3   5  12 2172.26 785.975   6
   3   5  12 845.113 508.570   1
   3   5  13 2517.05 1279.18   8
   3   5  13 2748.91 859.639   1
   3   5  13 3572.08 1145.15   6
   3   5  14 3401.81 1481.52   8
   3   5  14 2755.78 1039.84   6
   3   5  15 3861.87 1427.57   8
   3   5  15 3206.36 1179.94   6
   3   5  16 1928.00 1370.54   8
   3   5  16 1527.33 997.214   6
   3   5  17 74.1502 843.169   8
   3   5  17 300.609 688.291   6
   3   5  18-1440.09 1260.88   8
   3   5  19 700.567 1192.00   8
   3   5  20 4155.15 2077.94   8
   3   5  21-361.203 829.998   8
   3   6 -17 1198.67 1113.62   5
   3   6 -16-1291.40 1050.84   5
   3   6 -15 816.447 880.819   5
   3   6 -14 1102.01 916.308   5
   3   6 -13 1038.18 1164.66   5
   3   6 -12 3457.01 1411.14   5
   3   6 -11 7004.72 1845.25   5
   3   6 -10 6063.30 1752.75   5
   3   6  -9 5422.65 1478.17   5
   3   6  -8 532.973 633.565   5
   3   6  -7 1003.92 1077.95   5
   3   6  -6-118.954 197.342   9
   3   6  -6 2.14592 465.667   5
   3   6  -5 659.542 306.717   9
   3   6  -5 934.742 727.712   5
   3   6  -4 6446.74 875.694   9
   3   6  -4 6917.13 1561.51   5
   3   6  -3 21899.3 1617.90   9
   3   6  -3 20665.4 2631.86   5
   3   6  -2 35509.2 2152.68   9
   3   6  -2 37319.6 3677.59   8
   3   6  -2 37366.9 3377.48   5
   3   6  -1 24052.5 1832.61   9
   3   6  -1 27236.2 3023.27   8
   3   6  -1 29433.4 2926.84   5
   3   6   0 5465.13 907.316   9
   3   6   0 6363.36 1317.17   8
   3   6   0 7281.27 1502.38   5
   3   6   1 855.636 359.381   9
   3   6   1 1644.57 906.264   8
   3   6   1 1964.58 1060.90   5
   3   6   2 16835.8 2360.84   8
   3   6   2 16155.5 2152.67   5
   3   6   3 32589.6 3179.61   8
   3   6   3 31534.2 1729.08   6
   3   6   4 40433.9 3512.46   8
   3   6   4 37026.3 1934.75   6
   3   6   5 24282.3 2929.05   8
   3   6   5 24856.7 1582.06   6
   3   6   6 10224.0 1888.00   8
   3   6   6 7104.96 874.204   6
   3   6   7 701.591 649.172   8
   3   6   7-18.2401 212.264   6
   3   6   8 1383.32 910.491   8
   3   6   9 6653.61 1529.42   8
   3   6  10 10261.5 2228.33   8
   3   6  11 9201.13 2095.76   8
   3   6  12 6600.74 1865.28   8
   3   6  13 2625.49 1293.77   8
   3   6  14 1036.88 1073.61   8
   3   6  15 605.502 992.432   8
   3   6  16 2667.64 1319.04   8
   3   6  17 2942.60 1519.63   8
   3   6  18 2036.81 1522.55   8
   3   6  19-329.057 830.237   8
   3   6  20 42.4532 1229.78   8
   3   6  21 635.987 1159.95   8
   3   7 -16 699.970 863.919   5
   3   7 -15 1101.60 1074.67   5
   3   7 -14 686.202 960.096   5
   3   7 -13 2658.32 1544.52   5
   3   7 -12 598.974 991.714   5
   3   7 -11 1055.80 1145.36   5
   3   7 -10 542.434 829.558   5
   3   7  -9 1747.59 1046.60   5
   3   7  -8 8574.93 1961.30   5
   3   7  -7 6863.01 1606.10   5
   3   7  -6 11993.6 2123.90   5
   3   7  -5 7640.88 1728.05   5
   3   7  -4 1088.13 410.277   9
   3   7  -4 2030.68 947.240   5
   3   7  -3 399.359 256.037   9
   3   7  -3 841.845 706.290   5
   3   7  -2 5804.95 967.405   9
   3   7  -2 6991.09 1775.80   8
   3   7  -2 7616.73 1584.64   5
   3   7  -1 14209.3 1547.19   9
   3   7  -1 15029.4 2429.68   8
   3   7  -1 13969.1 2075.22   5
   3   7   0 18069.7 1791.26   9
   3   7   0 22517.6 2799.30   8
   3   7   0 19548.1 2415.26   5
   3   7   1 16349.0 1816.50   9
   3   7   1 18652.4 2529.22   8
   3   7   1 19260.4 2393.93   5
   3   7   2 15786.5 2444.10   8
   3   7   2 14377.7 2122.32   5
   3   7   3 5069.09 1485.87   8
   3   7   3 4715.03 1259.99   5
   3   7   4 1547.79 898.159   8
   3   7   5 6681.61 1594.61   8
   3   7   6 13015.0 2148.52   8
   3   7   7 12486.4 2190.34   8
   3   7   8 12762.1 2280.98   8
   3   7   9 3782.24 1264.69   8
   3   7  10 1605.18 1236.97   8
   3   7  11 1969.55 1478.90   8
   3   7  12 1410.31 818.067   8
   3   7  13 4676.71 1769.81   8
   3   7  14 2973.02 1399.11   8
   3   7  15 3231.05 1604.65   8
   3   7  16 2372.89 1321.18   8
   3   7  17 1116.01 1036.04   8
   3   7  18 17.1376 842.225   8
   3   7  19 1894.42 1440.34   8
   3   7  20-1037.86 813.878   8
   3   8 -15-93.0119 718.785   5
   3   8 -14-196.915 737.269   5
   3   8 -13-2311.79 1205.94   5
   3   8 -12 1593.83 1029.32   5
   3   8 -11 3910.19 1474.23   5
   3   8 -10 2996.01 1228.38   5
   3   8  -9 2202.91 1072.56   5
   3   8  -8 1011.73 810.259   5
   3   8  -7 814.381 936.329   5
   3   8  -6 122.457 544.578   5
   3   8  -5 3227.18 1204.87   5
   3   8  -4 10264.8 2050.75   5
   3   8  -3 11493.2 2085.02   5
   3   8  -2 10542.0 1967.64   5
   3   8  -1 3909.22 945.481   9
   3   8  -1 4418.10 1559.79   8
   3   8  -1 4224.03 1283.85   5
   3   8   0-110.029 364.071   9
   3   8   0 140.705 666.124   8
   3   8   0 1215.31 835.910   5
   3   8   1 1146.84 651.809   9
   3   8   1 1801.89 1039.06   8
   3   8   1 2413.25 889.737   5
   3   8   2 7028.92 1296.95   9
   3   8   2 8370.09 1887.89   8
   3   8   2 8330.11 1737.00   5
   3   8   3 11377.5 2251.93   8
   3   8   4 13997.1 2383.71   8
   3   8   5 6313.26 1699.05   8
   3   8   6 5835.79 1558.26   8
   3   8   7-117.571 882.290   8
   3   8   8 361.964 651.277   8
   3   8   9 6162.43 1786.60   8
   3   8  10 4685.42 1526.91   8
   3   8  11 7010.40 1953.37   8
   3   8  12 1149.34 1251.35   8
   3   8  13-299.185 645.618   8
   3   8  14-35.8408 1187.67   8
   3   8  15 303.792 1267.44   8
   3   8  16-271.011 696.209   8
   3   8  17 2654.95 1556.85   8
   3   8  18 743.009 1051.51   8
   3   8  19 2175.97 1432.42   8
   3   9 -13 1564.14 1139.08   5
   3   9 -12 586.275 1054.37   5
   3   9 -11 352.977 1008.84   5
   3   9 -10 1166.95 1226.34   5
   3   9  -9 1477.23 1077.51   5
   3   9  -8 2320.39 1275.18   5
   3   9  -7 3733.11 1419.22   5
   3   9  -6 5418.72 1664.25   5
   3   9  -5 3625.75 1329.03   5
   3   9  -4 1606.78 994.782   5
   3   9  -3 726.476 679.770   5
   3   9  -2 4772.42 1450.54   5
   3   9  -1 7470.74 1716.46   5
   3   9   0 11659.3 2312.95   8
   3   9   0 6129.09 1546.79   5
   3   9   1 7422.25 1397.95   9
   3   9   1 9584.37 2142.50   8
   3   9   1 7291.98 1605.22   5
   3   9   2 2686.38 958.181   9
   3   9   2 4229.67 1455.72   8
   3   9   2 5622.45 1520.70   5
   3   9   3-234.881 441.580   9
   3   9   3 1439.14 875.555   8
   3   9   4 3146.11 1286.86   8
   3   9   5 3435.26 1288.32   8
   3   9   6 3997.52 1646.19   8
   3   9   7 7338.92 1819.32   8
   3   9   8 4070.19 1496.52   8
   3   9   9 3279.10 1461.59   8
   3   9  10 1366.65 1154.97   8
   3   9  11-231.473 639.339   8
   3   9  12 1291.42 1188.34   8
   3   9  13 1508.90 1481.07   8
   3   9  14 1957.66 1448.56   8
   3   9  15 1359.01 1207.86   8
   3   9  16 916.360 1138.79   8
   3   9  17 410.767 898.950   8
   3   9  18 1019.60 1080.87   8
   3  10 -12 289.446 763.504   5
   3  10 -11 793.412 914.250   5
   3  10 -10 1667.15 1191.38   5
   3  10  -9 1530.00 1208.75   5
   3  10  -8 850.767 886.851   5
   3  10  -7 388.469 629.476   5
   3  10  -6 1219.71 747.837   5
   3  10  -5 1198.24 872.550   5
   3  10  -4 1491.05 864.426   5
   3  10  -3 4651.51 1437.44   5
   3  10  -2 1980.98 966.844   5
   3  10  -1 1578.01 742.757   5
   3  10   0 544.049 605.804   5
   3  10   1 1773.37 1287.29   8
   3  10   1 818.318 774.061   5
   3  10   2 4713.40 1600.60   8
   3  10   2 3637.23 1334.14   5
   3  10   3 3470.12 1444.39   8
   3  10   4 6005.68 1898.03   8
   3  10   5 3923.17 1536.81   8
   3  10   6 2824.48 1401.89   8
   3  10   7 4054.10 1666.96   8
   3  10   8 180.551 879.521   8
   3  10   9 2829.08 1413.18   8
   3  10  10 3378.97 1650.62   8
   3  10  11 725.580 1076.84   8
   3  10  12 991.576 1308.45   8
   3  10  13 1107.02 999.446   8
   3  10  14-473.019 754.105   8
   3  10  15 428.085 890.843   8
   3  10  16 1876.77 1299.13   8
   3  11 -10-1311.13 1269.21   5
   3  11  -9-2646.05 1236.46   5
   3  11  -8 838.861 1054.32   5
   3  11  -7 3291.18 1311.60   5
   3  11  -6 530.368 562.104   5
   3  11  -5 2786.97 1302.73   5
   3  11  -4 1780.30 1068.82   5
   3  11  -3 154.579 590.076   5
   3  11  -2 1286.00 734.564   5
   3  11   3 1724.05 887.427   8
   3  11   4 362.949 663.482   8
   3  11   5 1881.83 1232.80   8
   3  11   6 1896.14 1191.45   8
   3  11   7 2395.47 1414.92   8
   3  11   8 1956.39 1353.09   8
   3  11   9 1293.13 1248.98   8
   3  11  10 556.052 1046.94   8
   3  11  11 1349.12 1161.98   8
   3  11  12 189.160 812.125   8
   3  11  13-1030.36 1203.39   8
   3  11  14 184.062 784.709   8
   3  12   4 604.479 1038.07   8
   3  12   5 2088.04 1587.18   8
   3  12   6-1885.74 1233.68   8
   3  12   7-694.602 971.657   8
   3  12   8 796.663 1027.62   8
   3  12   9 52.5370 903.164   8
   3  12  10 1012.81 1076.02   8
   3  12  11 197.011 1000.64   8
   4 -10  -6 1066.08 1186.55   7
   4 -10  -5-1241.48 1021.47   7
   4 -10  -4 1085.16 1026.85   7
   4 -10  -3 1503.50 1074.38   7
   4 -10  -2 555.385 709.482   7
   4 -10  -1 785.177 920.915   7
   4 -10   0 986.806 1104.36   7
   4 -10   1 4272.66 2056.57   7
   4 -10   2 624.406 895.819   7
   4 -10   3-2457.67 1544.09   7
   4 -10   4-1341.41 1151.46   7
   4 -10   5-1504.56 1207.20   7
   4  -9 -11 174.787 513.204   7
   4  -9 -10-149.596 662.417   7
   4  -9  -9 1678.21 1193.98   7
   4  -9  -8 239.180 787.282   7
   4  -9  -7 15.0837 605.301   7
   4  -9  -6-365.416 570.446   7
   4  -9  -5 491.574 560.882   7
   4  -9  -4-625.443 793.024   7
   4  -9  -3 3648.80 1557.00   7
   4  -9  -2 2852.13 1390.21   7
   4  -9  -1 810.951 1007.54   7
   4  -9   0 1451.25 1347.55   7
   4  -9   1 732.180 821.973   7
   4  -9   2-182.337 816.366   7
   4  -9   3-283.693 765.314   7
   4  -9   4-1196.31 1284.20   7
   4  -9   5 2230.61 1289.37   7
   4  -9   6-1690.93 1370.29   7
   4  -8 -13 2410.94 1284.31   7
   4  -8 -12 879.011 924.427   7
   4  -8 -11 627.506 972.853   7
   4  -8 -10 199.065 488.286   7
   4  -8  -9 671.289 786.450   7
   4  -8  -8 760.775 863.341   7
   4  -8  -7 2004.88 892.310   7
   4  -8  -7 1405.91 945.054   6
   4  -8  -6 1736.09 1042.42   7
   4  -8  -6 1649.76 928.223   6
   4  -8  -5 508.388 834.880   7
   4  -8  -5 261.043 628.441   6
   4  -8  -4 886.957 875.040   7
   4  -8  -4 1126.50 798.364   6
   4  -8  -3-400.828 780.920   7
   4  -8  -3 67.5659 475.804   6
   4  -8  -2 2074.75 1345.30   7
   4  -8  -2 420.750 520.304   6
   4  -8  -1 2464.93 1180.43   7
   4  -8  -1 3652.28 1423.12   6
   4  -8   0 2380.17 1409.90   7
   4  -8   0 2079.66 1192.21   6
   4  -8   1 769.068 794.283   7
   4  -8   1 2435.49 1157.97   6
   4  -8   2-693.045 633.863   7
   4  -8   2 237.228 706.088   6
   4  -8   3 256.322 677.642   7
   4  -8   3 2165.01 1031.57   6
   4  -8   4 178.802 623.693   7
   4  -8   4-703.074 897.424   6
   4  -8   5-736.518 1112.87   7
   4  -8   5-956.712 1027.50   6
   4  -8   6 780.180 805.497   7
   4  -8   6 1164.71 989.735   6
   4  -8   7 237.682 684.948   7
   4  -8   7 2283.00 1357.84   6
   4  -8   8 298.629 596.548   6
   4  -8   9 363.176 700.972   6
   4  -8  10 213.042 894.184   6
   4  -8  11 2511.02 1609.36   6
   4  -8  12 1321.95 1168.80   6
   4  -7 -15 723.684 916.386   7
   4  -7 -14 449.072 694.817   7
   4  -7 -13 462.116 797.115   7
   4  -7 -12-241.615 636.682   7
   4  -7 -11-256.735 439.622   7
   4  -7 -10 2299.79 1130.93   7
   4  -7  -9-585.635 851.808   7
   4  -7  -8-76.0179 541.857   7
   4  -7  -8 1630.61 1018.15   6
   4  -7  -7-402.256 658.364   7
   4  -7  -7 32.3689 770.134   6
   4  -7  -6 1150.34 770.233   7
   4  -7  -6 473.973 894.665   6
   4  -7  -5 909.963 752.014   7
   4  -7  -5-54.4771 542.704   6
   4  -7  -4 2693.44 1004.47   7
   4  -7  -4 1292.62 991.260   6
   4  -7  -3 4363.07 1399.12   7
   4  -7  -3 2764.25 1278.44   6
   4  -7  -2 3523.50 1396.15   7
   4  -7  -2 4251.05 1488.92   6
   4  -7  -1 1609.14 1060.31   7
   4  -7  -1 1260.00 612.250   6
   4  -7   0 258.004 817.532   7
   4  -7   0-901.985 723.200   6
   4  -7   1 693.399 802.833   7
   4  -7   1 1085.43 804.541   6
   4  -7   2 2208.17 1180.28   7
   4  -7   2 2966.26 1201.44   6
   4  -7   3 2578.75 1070.97   7
   4  -7   3 3057.15 1114.63   6
   4  -7   4 2436.65 1220.95   7
   4  -7   4 3599.60 1442.43   6
   4  -7   5 1779.10 1016.69   7
   4  -7   5 1240.57 876.251   6
   4  -7   6-1276.22 909.268   7
   4  -7   6 219.022 690.393   6
   4  -7   7-1057.93 932.524   7
   4  -7   7-282.422 722.378   6
   4  -7   8 400.846 844.659   6
   4  -7   9 424.124 661.400   6
   4  -7  10 1382.20 1231.19   6
   4  -7  11-37.8493 587.764   6
   4  -7  12 711.493 1348.95   6
   4  -7  13 1340.38 1284.38   6
   4  -6 -17-32.6229 553.300   7
   4  -6 -16 240.507 842.193   7
   4  -6 -15 50.7694 519.830   7
   4  -6 -14-972.830 817.944   7
   4  -6 -13 977.564 920.279   7
   4  -6 -12 2710.87 1186.80   7
   4  -6 -11 789.794 1019.15   7
   4  -6 -10 714.909 887.450   7
   4  -6  -9 1277.25 814.691   7
   4  -6  -8 1674.05 870.323   7
   4  -6  -8 4925.32 1548.85   6
   4  -6  -7 3762.95 1222.94   7
   4  -6  -7 7131.53 1717.29   6
   4  -6  -6 3813.52 1215.01   7
   4  -6  -6 7408.72 1770.18   6
   4  -6  -5 984.441 734.042   7
   4  -6  -5 4079.74 1265.06   6
   4  -6  -4-0.74300 644.330   7
   4  -6  -4 1260.53 716.724   6
   4  -6  -3 1604.86 901.254   7
   4  -6  -3 908.774 820.619   6
   4  -6  -2 5885.31 1513.44   7
   4  -6  -2 5325.61 1563.26   6
   4  -6  -1 6934.03 1748.49   7
   4  -6  -1 8373.10 1863.40   6
   4  -6   0 3175.23 1130.66   7
   4  -6   0 6505.46 1649.88   6
   4  -6   1 3867.07 1225.95   7
   4  -6   1 5539.28 1472.62   6
   4  -6   2 1978.31 1065.56   7
   4  -6   2 2021.68 1031.13   6
   4  -6   3 518.147 596.956   7
   4  -6   3 1248.40 653.862   6
   4  -6   4 108.061 566.932   7
   4  -6   4-509.100 696.217   6
   4  -6   5 1120.53 756.579   7
   4  -6   5 1190.04 1002.47   6
   4  -6   6 1132.22 473.177   7
   4  -6   6 2591.71 1283.82   6
   4  -6   7 2747.16 1114.95   7
   4  -6   7 5023.49 1606.29   6
   4  -6   8 1845.01 1352.97   6
   4  -6   9 1817.44 1409.53   6
   4  -6  10 604.379 807.002   6
   4  -6  11 593.928 1419.49   6
   4  -6  12-452.953 677.455   6
   4  -6  13-1217.63 1177.66   6
   4  -6  14 1355.47 1153.31   6
   4  -6  15-295.069 956.008   6
   4  -5 -18 207.540 727.035   7
   4  -5 -17 2110.83 1219.49   7
   4  -5 -16-297.372 589.616   7
   4  -5 -15 567.214 749.990   7
   4  -5 -14 51.5020 456.300   7
   4  -5 -13 845.040 957.951   7
   4  -5 -12 1138.96 847.654   7
   4  -5 -11 1749.27 930.250   7
   4  -5 -10 2640.57 1113.57   7
   4  -5  -9 1358.64 804.927   7
   4  -5  -8 876.289 650.801   7
   4  -5  -8 2023.45 1114.20   6
   4  -5  -7 724.623 438.841   7
   4  -5  -7 196.036 626.494   6
   4  -5  -6 896.624 677.748   7
   4  -5  -6 1110.34 689.726   6
   4  -5  -5 2479.29 931.918   7
   4  -5  -5 5627.29 1573.39   6
   4  -5  -4 5176.38 1321.32   7
   4  -5  -4 8363.18 1816.54   6
   4  -5  -3 8426.91 1584.09   7
   4  -5  -3 11784.9 2090.08   6
   4  -5  -2 5580.82 1276.13   7
   4  -5  -2 6033.03 1648.11   6
   4  -5  -1 2464.65 921.163   7
   4  -5  -1 3117.40 1276.42   6
   4  -5   0 1230.66 721.481   7
   4  -5   0-61.3799 504.251   6
   4  -5   1 2088.37 903.934   7
   4  -5   1 2614.79 1184.53   6
   4  -5   2 6917.36 1472.37   7
   4  -5   2 9994.16 1999.30   6
   4  -5   3 13200.7 2061.50   7
   4  -5   3 15607.6 2397.00   6
   4  -5   4 6582.56 1434.42   7
   4  -5   4 7575.19 1785.00   6
   4  -5   5 3245.54 1062.87   7
   4  -5   5 6443.24 1750.75   6
   4  -5   6-200.159 622.363   7
   4  -5   6 2508.42 1180.79   6
   4  -5   7-731.927 598.307   7
   4  -5   7 557.805 705.471   6
   4  -5   8 1707.28 1066.12   6
   4  -5   9 2240.68 1448.68   6
   4  -5  10 4140.87 1712.56   6
   4  -5  11 1453.66 1275.41   6
   4  -5  12 1806.10 1142.91   6
   4  -5  13-233.307 944.061   6
   4  -5  14-418.115 1029.56   6
   4  -5  15-1286.07 1673.40   6
   4  -5  16 740.349 1116.20   6
   4  -4 -19-480.258 545.612   7
   4  -4 -18 2010.94 1246.11   7
   4  -4 -17 1229.01 1013.80   7
   4  -4 -16 314.070 859.332   7
   4  -4 -15 426.464 504.012   7
   4  -4 -14-334.021 526.906   7
   4  -4 -13 1071.60 917.612   7
   4  -4 -12 1231.27 764.216   7
   4  -4 -11 25.1460 417.825   7
   4  -4 -10 340.279 593.890   7
   4  -4  -9 2381.17 1120.00   7
   4  -4  -8 5579.62 1406.43   7
   4  -4  -8 3541.05 1272.03   6
   4  -4  -7 7900.01 1555.74   7
   4  -4  -7 5694.39 1489.58   6
   4  -4  -6 7361.93 1503.85   7
   4  -4  -6 9623.24 1888.77   6
   4  -4  -5 4149.51 1118.93   7
   4  -4  -5 6621.67 1619.62   6
   4  -4  -4 98.7075 497.729   7
   4  -4  -4 126.279 460.173   6
   4  -4  -3 2219.11 867.684   7
   4  -4  -3 3353.39 1211.38   6
   4  -4  -2 5439.17 1229.05   7
   4  -4  -2 3807.98 1316.68   6
   4  -4  -1 12465.3 1794.20   7
   4  -4  -1 14040.2 2229.14   6
   4  -4   0 17570.4 2168.15   7
   4  -4   0 20951.0 2656.30   6
   4  -4   1 7647.10 1402.19   7
   4  -4   1 9884.85 1756.21   6
   4  -4   2 4688.52 1151.46   7
   4  -4   2 4291.16 1322.30   6
   4  -4   3 369.037 508.006   7
   4  -4   3 951.426 526.827   6
   4  -4   4 1646.98 704.061   7
   4  -4   4 2459.16 1093.01   6
   4  -4   5 2684.15 919.186   7
   4  -4   5 4254.13 1321.14   6
   4  -4   6 10377.4 1656.61   7
   4  -4   6 14022.5 2352.10   6
   4  -4   7 8463.89 1495.21   7
   4  -4   7 11263.0 2249.05   6
   4  -4   8 8596.20 2030.39   6
   4  -4   9 3104.18 1293.77   6
   4  -4  10-118.342 666.629   6
   4  -4  11 1186.85 972.971   6
   4  -4  12 1885.90 1408.58   6
   4  -4  13 3476.86 1676.58   6
   4  -4  14 73.8839 897.750   6
   4  -4  15 623.010 1366.31   6
   4  -4  16 283.825 1013.77   6
   4  -4  17-444.071 908.583   6
   4  -3 -19 770.411 982.147   7
   4  -3 -18 2789.83 1329.03   7
   4  -3 -17 1090.58 872.624   7
   4  -3 -16 883.119 793.085   7
   4  -3 -15 412.345 839.274   7
   4  -3 -14 289.384 573.749   7
   4  -3 -13 232.929 375.165   7
   4  -3 -12 2493.26 1217.07   7
   4  -3 -11 6119.50 1554.40   7
   4  -3 -10 5532.88 1418.77   7
   4  -3  -9 2737.52 1042.44   7
   4  -3  -9 4351.93 903.987   5
   4  -3  -8 627.170 552.482   7
   4  -3  -8 1731.44 971.192   6
   4  -3  -8 1039.72 495.115   5
   4  -3  -7 1048.66 615.089   7
   4  -3  -7 1865.97 1074.26   6
   4  -3  -6 8992.59 1554.93   7
   4  -3  -6 10076.5 2027.84   6
   4  -3  -5 12958.7 1824.15   7
   4  -3  -5 18193.8 2491.81   6
   4  -3  -4 13137.9 1782.82   7
   4  -3  -4 11904.3 2005.59   6
   4  -3  -3 8871.26 1487.86   7
   4  -3  -3 11358.4 1934.46   6
   4  -3  -2 6337.72 1220.83   7
   4  -3  -2 9247.50 1776.95   6
   4  -3  -1 3911.46 994.312   7
   4  -3  -1 5062.49 1379.42   6
   4  -3   0 111.032 224.904   8
   4  -3   0 240.877 394.501   7
   4  -3   0 365.028 765.465   6
   4  -3   1 6549.80 1175.68   7
   4  -3   1 7757.93 1559.64   6
   4  -3   2 19414.3 2000.68   7
   4  -3   2 21971.5 2633.11   6
   4  -3   3 22303.7 2159.55   7
   4  -3   3 23670.3 2864.59   6
   4  -3   4 17831.3 1874.86   7
   4  -3   4 18810.9 2531.93   6
   4  -3   5 7207.02 1232.78   7
   4  -3   5 7063.56 1707.77   6
   4  -3   6 534.920 430.175   7
   4  -3   6 940.487 844.224   6
   4  -3   7 520.214 433.674   7
   4  -3   7 1436.47 870.189   6
   4  -3   8 3649.67 1467.56   6
   4  -3   9 3043.44 973.257   6
   4  -3  10 3446.56 1448.19   6
   4  -3  11 4343.83 1644.53   6
   4  -3  12 1480.57 1336.47   6
   4  -3  13 35.6339 932.025   6
   4  -3  14-1183.46 1097.09   6
   4  -3  15 2951.05 1489.23   6
   4  -3  16 1070.20 948.031   6
   4  -3  17 2540.16 1774.78   6
   4  -3  18 537.977 811.240   6
   4  -2 -20 1625.83 1058.20   7
   4  -2 -19-681.093 498.101   7
   4  -2 -18 1029.14 950.506   7
   4  -2 -17-526.302 637.391   7
   4  -2 -16-485.253 721.097   7
   4  -2 -15 1206.56 815.151   7
   4  -2 -14 2193.22 971.147   7
   4  -2 -13 527.564 501.145   7
   4  -2 -13 380.609 320.779   5
   4  -2 -12-107.251 507.347   7
   4  -2 -12 738.023 635.264   5
   4  -2 -11 967.950 691.978   7
   4  -2 -11 408.487 551.768   5
   4  -2 -10 375.965 652.731   7
   4  -2 -10 813.477 626.015   5
   4  -2  -9 341.830 510.848   7
   4  -2  -9 1134.14 587.479   5
   4  -2  -8 4264.32 1193.35   7
   4  -2  -8 3267.72 1240.73   6
   4  -2  -8 3250.05 900.107   5
   4  -2  -7 7581.97 1403.87   7
   4  -2  -7 10304.7 1926.33   6
   4  -2  -7 8211.48 1278.74   5
   4  -2  -6 13575.8 1826.40   7
   4  -2  -6 17295.3 2472.13   6
   4  -2  -6 16675.6 1808.59   5
   4  -2  -5 15129.2 1866.75   7
   4  -2  -5 15676.3 2280.26   6
   4  -2  -4 2259.60 785.447   7
   4  -2  -4 2844.32 990.144   6
   4  -2  -3 2657.94 821.226   7
   4  -2  -3 3343.74 1072.51   6
   4  -2  -2 13996.4 1022.07   8
   4  -2  -2 17172.4 1833.74   7
   4  -2  -2 20116.5 2452.04   6
   4  -2  -1 52946.3 2441.50   8
   4  -2  -1 56037.8 3354.14   7
   4  -2   0 23802.1 1683.11   8
   4  -2   0 25578.9 2140.59   7
   4  -2   0 29536.2 2961.38   6
   4  -2   1 14132.6 1408.70   8
   4  -2   1 14003.7 1537.91   7
   4  -2   1 16991.4 2286.54   6
   4  -2   2 5385.87 930.038   7
   4  -2   2 5412.48 1317.89   6
   4  -2   3 94.0787 337.902   7
   4  -2   3-321.034 626.577   6
   4  -2   4 2709.89 631.433   7
   4  -2   4 3077.42 1082.71   6
   4  -2   5 10489.8 1271.39   7
   4  -2   5 13161.4 2181.47   6
   4  -2   6 19754.6 1661.99   7
   4  -2   6 29468.9 3140.94   6
   4  -2   7 12987.9 1349.18   7
   4  -2   7 19556.7 2660.85   6
   4  -2   8 14498.2 2428.01   6
   4  -2   9 2480.65 1215.98   6
   4  -2  10-748.308 937.502   6
   4  -2  11 2252.48 982.293   6
   4  -2  12 2110.00 1217.79   6
   4  -2  13 6610.70 2103.64   6
   4  -2  14 3841.58 1594.01   6
   4  -2  15-240.251 673.770   6
   4  -2  16 1438.26 1340.52   6
   4  -2  17 650.571 861.284   6
   4  -2  18 831.781 1175.12   6
   4  -1 -20-178.872 664.377   7
   4  -1 -19 914.603 902.148   7
   4  -1 -18 470.705 962.019   7
   4  -1 -17 983.455 778.087   7
   4  -1 -16 625.426 721.066   7
   4  -1 -16-384.521 533.293   5
   4  -1 -15 135.641 504.532   7
   4  -1 -15 176.035 471.346   5
   4  -1 -14 464.880 710.610   7
   4  -1 -14-164.060 606.172   5
   4  -1 -13 1450.64 855.721   7
   4  -1 -13 707.322 667.199   5
   4  -1 -12 3993.06 1353.15   7
   4  -1 -12 2182.05 849.874   5
   4  -1 -11 7320.36 1595.67   7
   4  -1 -11 7611.94 1478.24   5
   4  -1 -10 9550.24 1667.12   7
   4  -1 -10 9108.87 1584.38   5
   4  -1  -9 4713.99 1104.71   7
   4  -1  -9 6008.53 1184.15   5
   4  -1  -8 925.429 701.316   7
   4  -1  -8 1296.94 696.819   5
   4  -1  -7 5067.00 1103.70   7
   4  -1  -7 6191.42 1459.35   6
   4  -1  -7 6108.34 1192.67   5
   4  -1  -6 12849.3 1783.85   7
   4  -1  -6 18589.4 2583.17   6
   4  -1  -6 16418.2 1853.68   5
   4  -1  -5 17571.1 1936.16   7
   4  -1  -5 19840.0 2451.30   6
   4  -1  -5 18468.5 1981.25   5
   4  -1  -4 17423.7 1875.84   7
   4  -1  -4 16134.8 2386.16   6
   4  -1  -4 17000.4 1910.72   5
   4  -1  -3 12026.3 1115.70   8
   4  -1  -3 11698.8 1491.20   7
   4  -1  -3 13519.1 2034.81   6
   4  -1  -2 4823.38 740.955   8
   4  -1  -2 6215.20 1061.61   7
   4  -1  -2 8049.55 1530.57   6
   4  -1  -1 1338.40 477.534   8
   4  -1  -1 1105.18 529.176   7
   4  -1  -1 1809.13 963.462   6
   4  -1   0 2087.02 560.967   8
   4  -1   0 1826.63 528.163   7
   4  -1   0 3349.96 1130.80   6
   4  -1   1 6001.23 994.480   8
   4  -1   1 6286.77 947.506   7
   4  -1   1 7895.37 1594.17   6
   4  -1   2 23798.8 2055.21   8
   4  -1   2 22779.8 1754.60   7
   4  -1   3 37906.8 2757.61   8
   4  -1   3 34306.3 2092.20   7
   4  -1   3 40191.3 3488.33   6
   4  -1   4 23809.2 1627.03   7
   4  -1   4 24131.0 2698.03   6
   4  -1   5 5185.83 695.333   7
   4  -1   5 8984.57 1651.26   6
   4  -1   6 122.686 178.352   7
   4  -1   6 528.150 647.369   6
   4  -1   7 1242.18 898.413   6
   4  -1   8 7429.85 1626.69   6
   4  -1   9 8902.71 1977.04   6
   4  -1  10 9938.38 2149.02   6
   4  -1  11 6686.22 1697.20   6
   4  -1  12 849.063 1079.16   6
   4  -1  13-567.169 939.537   6
   4  -1  14 1411.14 902.941   1
   4  -1  14 2233.36 1226.16   6
   4  -1  15-1237.32 1406.24   6
   4  -1  15-168.089 603.342   1
   4  -1  16 1339.55 1490.46   6
   4  -1  17 480.009 1083.51   6
   4  -1  18-1214.81 1161.49   6
   4  -1  19 832.786 1226.43   6
   4   0 -19 427.567 685.692   7
   4   0 -19-336.838 524.188   5
   4   0 -18 86.0673 667.552   7
   4   0 -18 576.834 884.937   5
   4   0 -17-405.329 538.693   7
   4   0 -17 519.719 718.382   5
   4   0 -16 694.392 774.878   7
   4   0 -16-980.060 752.276   5
   4   0 -15 2615.05 1258.79   7
   4   0 -15 1456.06 514.735   5
   4   0 -14 1072.86 826.893   7
   4   0 -14 2368.20 1111.74   5
   4   0 -13 1672.72 969.831   7
   4   0 -13 2228.16 1088.88   5
   4   0 -12 262.552 514.984   7
   4   0 -12 341.089 699.130   5
   4   0 -11-364.910 504.943   7
   4   0 -11 1382.13 713.171   5
   4   0 -10 342.474 421.468   7
   4   0 -10 1591.94 795.024   5
   4   0  -9 4655.52 1132.95   7
   4   0  -9 4440.10 1169.27   5
   4   0  -8 9201.23 1536.01   7
   4   0  -8 9591.08 1579.75   5
   4   0  -7 14977.2 1925.29   7
   4   0  -7 13314.4 2218.65   6
   4   0  -7 15789.5 1988.79   5
   4   0  -6 14714.5 1801.60   7
   4   0  -6 15831.2 2193.63   6
   4   0  -6 14389.9 1848.67   5
   4   0  -5 6748.26 1261.66   7
   4   0  -5 8542.91 1729.74   6
   4   0  -5 6958.34 1204.16   5
   4   0  -4-268.661 455.452   7
   4   0  -4 863.529 783.282   6
   4   0  -4 51.6911 542.500   5
   4   0  -3 8517.75 1098.51   8
   4   0  -3 8382.83 1241.98   7
   4   0  -3 7435.93 1476.40   6
   4   0  -3 9322.77 1511.65   5
   4   0  -2 31795.7 2181.96   8
   4   0  -2 28407.4 2206.31   7
   4   0  -2 31885.1 2905.13   6
   4   0  -1 40984.8 2564.36   8
   4   0  -1 39643.1 2530.36   7
   4   0  -1 47362.4 3533.85   6
   4   0   0 21317.1 1872.04   8
   4   0   0 21844.2 1760.81   7
   4   0   0 25201.5 2554.17   6
   4   0   1 43506.6 2813.51   8
   4   0   1 39167.0 2308.50   7
   4   0   1 45049.4 3402.32   6
   4   0   2 8315.09 1218.40   8
   4   0   2 6327.37 852.712   7
   4   0   2 6461.28 1363.63   6
   4   0   3-152.598 671.368   8
   4   0   3 326.831 203.855   7
   4   0   3-193.924 629.505   6
   4   0   4 8825.44 1512.83   8
   4   0   4 7498.98 758.551   7
   4   0   4 9216.21 1669.48   6
   4   0   5 22740.5 1250.44   7
   4   0   5 31086.0 3047.87   6
   4   0   6 38795.2 3396.99   6
   4   0   7 23323.6 2696.27   6
   4   0   8 10031.0 1752.49   6
   4   0   9 112.163 875.883   6
   4   0  10 1235.63 783.477   6
   4   0  11 2087.25 735.227   1
   4   0  11 2308.41 1125.79   6
   4   0  12 5485.23 1632.95   6
   4   0  12 3580.37 1079.24   1
   4   0  13 5620.27 1796.30   6
   4   0  13 5354.02 1317.21   1
   4   0  14 5575.15 1852.61   6
   4   0  15 3525.65 1743.03   6
   4   0  16 694.302 968.799   6
   4   0  17 1010.48 1133.91   6
   4   0  18 853.807 866.272   6
   4   0  19 234.322 979.098   6
   4   0  20 1698.66 1477.65   6
   4   1 -21-1003.67 1082.80   5
   4   1 -20-326.293 621.117   5
   4   1 -19-195.387 828.158   5
   4   1 -18-1.04265 641.254   5
   4   1 -17 854.074 815.327   5
   4   1 -16-662.675 841.957   7
   4   1 -16 918.903 951.774   5
   4   1 -15 479.838 741.071   7
   4   1 -15 257.701 755.423   5
   4   1 -14 522.148 706.430   7
   4   1 -14-147.247 704.164   5
   4   1 -13 1271.20 852.698   7
   4   1 -13 287.354 691.720   5
   4   1 -12 2816.19 1036.79   7
   4   1 -12 3439.80 1210.91   5
   4   1 -11 5945.46 1555.67   7
   4   1 -11 4095.44 1282.98   5
   4   1 -10 5515.25 1399.20   7
   4   1 -10 4811.93 1286.43   5
   4   1  -9 2251.49 756.407   7
   4   1  -9 2687.76 1016.42   5
   4   1  -8 949.070 856.384   7
   4   1  -8-3.58087 432.702   5
   4   1  -7 2306.69 761.037   7
   4   1  -7 2928.72 1069.01   5
   4   1  -6 9718.32 1481.33   7
   4   1  -6 8728.29 1654.22   6
   4   1  -6 7704.78 1503.00   5
   4   1  -5 24708.7 2300.23   7
   4   1  -5 26503.3 2761.04   6
   4   1  -5 24514.1 2456.52   5
   4   1  -4 33332.6 2479.69   8
   4   1  -4 30356.1 2453.51   7
   4   1  -4 34198.0 3181.72   6
   4   1  -4 32101.3 2809.00   5
   4   1  -3 21981.9 1965.88   8
   4   1  -3 21351.4 1975.29   7
   4   1  -3 24640.0 2627.77   6
   4   1  -3 25698.7 2515.27   5
   4   1  -2 10224.9 1337.66   8
   4   1  -2 9146.24 1245.97   7
   4   1  -2 7688.07 1480.31   6
   4   1  -2 10299.5 1656.60   5
   4   1  -1-179.714 391.246   8
   4   1  -1 410.110 439.427   7
   4   1  -1 1143.62 785.952   5
   4   1   0 8863.59 1266.02   8
   4   1   0 8055.24 1051.14   7
   4   1   0 8638.01 1523.13   6
   4   1   1 27846.1 2311.29   8
   4   1   1 25918.6 1817.44   7
   4   1   1 31169.6 2785.54   6
   4   1   2 54721.8 3403.76   8
   4   1   2 59690.9 3897.75   6
   4   1   3 25812.0 2419.24   8
   4   1   3 23606.8 1457.45   7
   4   1   3 27444.8 2608.20   6
   4   1   4 11684.4 1687.21   8
   4   1   4 12232.2 1809.19   6
   4   1   5 4823.34 1217.08   8
   4   1   5 4812.54 1169.52   6
   4   1   6 409.061 662.826   8
   4   1   6 1577.06 883.879   6
   4   1   7 2557.50 1028.01   6
   4   1   8 7562.61 1603.58   6
   4   1   9 8265.95 1633.86   6
   4   1  10 14204.6 1600.61   1
   4   1  10 13830.1 2256.39   6
   4   1  11 6843.55 1676.99   6
   4   1  11 6014.84 1093.60   1
   4   1  12 2581.66 1169.63   6
   4   1  13 886.361 872.194   6
   4   1  14-419.809 824.788   6
   4   1  15 573.544 866.249   6
   4   1  16 1538.52 1297.00   6
   4   1  17 855.716 1329.41   6
   4   1  18 1253.26 1254.46   6
   4   1  19-586.398 867.059   6
   4   1  20-526.728 1044.22   6
   4   2 -20 1579.54 1475.94   5
   4   2 -19 615.630 850.353   5
   4   2 -18-1004.80 1150.96   5
   4   2 -17-466.655 803.305   5
   4   2 -16 1611.08 1182.81   5
   4   2 -15 806.638 851.131   5
   4   2 -14 1888.94 1075.45   5
   4   2 -13 1326.49 581.555   5
   4   2 -12-1175.80 876.804   5
   4   2 -11-145.356 551.439   5
   4   2 -10 3112.34 979.383   7
   4   2 -10 2723.78 1157.86   5
   4   2  -9 7524.88 1548.99   7
   4   2  -9 9533.90 1841.81   5
   4   2  -8 8087.89 1552.09   7
   4   2  -8 11042.3 1894.55   5
   4   2  -7 8057.08 1426.22   7
   4   2  -7 10226.3 1891.81   5
   4   2  -6 8179.05 1391.48   7
   4   2  -6 8039.51 1594.10   5
   4   2  -5 2719.43 694.052   7
   4   2  -5 1370.18 833.870   6
   4   2  -5 3660.19 1191.06   5
   4   2  -4-342.486 637.053   8
   4   2  -4 1818.93 661.603   7
   4   2  -4-295.956 718.022   6
   4   2  -4 1532.00 876.735   5
   4   2  -3 6621.57 1258.88   8
   4   2  -3 7841.50 1174.92   7
   4   2  -3 7743.75 1471.09   6
   4   2  -3 8569.65 1606.41   5
   4   2  -2 23264.9 2183.09   8
   4   2  -2 20952.2 1889.74   7
   4   2  -2 23293.9 2429.24   6
   4   2  -2 22953.4 2514.05   5
   4   2  -1 38104.4 2907.60   8
   4   2  -1 40809.9 3187.41   6
   4   2  -1 36969.7 3145.42   5
   4   2   0 43037.0 3040.46   8
   4   2   0 44066.3 3283.84   6
   4   2   0 44337.4 3521.15   5
   4   2   1 31930.8 2646.63   8
   4   2   1 31931.9 2753.32   6
   4   2   2 874.913 843.671   8
   4   2   2-150.976 542.948   6
   4   2   3 1002.36 764.645   8
   4   2   3 34.5297 473.548   6
   4   2   4 14699.9 1964.67   8
   4   2   4 14558.8 1868.62   6
   4   2   5 36595.6 3207.41   8
   4   2   5 40394.7 3220.82   6
   4   2   6 38227.7 3380.64   8
   4   2   6 41758.4 3332.10   6
   4   2   7 25266.0 2783.85   8
   4   2   7 26549.1 2744.98   6
   4   2   8 7876.34 1869.77   8
   4   2   8 9191.78 1694.30   6
   4   2   9 191.228 935.004   8
   4   2   9-57.6818 771.478   6
   4   2  10 1959.75 942.298   6
   4   2  11 3710.74 1201.75   6
   4   2  12 6511.20 1652.28   6
   4   2  13 6109.29 1693.42   6
   4   2  14 2587.89 1241.82   6
   4   2  15 628.431 1062.61   6
   4   2  16-1421.29 1009.76   6
   4   2  17-15.5534 699.731   6
   4   2  18-1167.68 1027.47   6
   4   2  19 228.853 824.540   6
   4   2  20-539.391 1052.46   6
   4   2  21 220.841 953.775   6
   4   3 -19 645.273 740.432   5
   4   3 -18 1353.73 1053.50   5
   4   3 -17-721.950 1016.53   5
   4   3 -16 762.276 735.757   5
   4   3 -15 1096.06 1082.21   5
   4   3 -14 1623.22 977.383   5
   4   3 -13 583.907 667.699   5
   4   3 -12 1738.32 928.254   5
   4   3 -11 1988.05 1066.39   5
   4   3 -10 4520.90 1406.83   5
   4   3  -9 4284.11 1276.28   5
   4   3  -8 342.975 618.255   5
   4   3  -7 3096.83 1224.32   5
   4   3  -6 12786.8 1990.72   5
   4   3  -5 29127.6 2995.79   5
   4   3  -4 22419.3 2469.77   8
   4   3  -4 19228.8 2194.57   6
   4   3  -4 23693.8 2690.27   5
   4   3  -3 20949.5 2243.16   8
   4   3  -3 18852.6 2178.35   6
   4   3  -3 18959.4 2372.30   5
   4   3  -2 8148.69 1537.47   8
   4   3  -2 6745.19 1307.72   6
   4   3  -2 8010.86 1568.40   5
   4   3  -1 515.187 662.830   8
   4   3  -1-73.1698 492.303   6
   4   3  -1 619.782 866.395   5
   4   3   0 10274.9 1566.56   8
   4   3   0 10559.5 1562.25   6
   4   3   0 10000.3 1827.21   5
   4   3   1 26674.1 2591.40   8
   4   3   1 25012.6 2360.23   6
   4   3   2 32513.6 2934.63   8
   4   3   2 31789.0 2627.59   6
   4   3   3 28501.7 2808.85   8
   4   3   3 27713.8 2517.70   6
   4   3   4 27188.6 2729.63   8
   4   3   4 26388.1 2421.86   6
   4   3   5 5330.55 1345.69   8
   4   3   5 7323.99 1311.43   6
   4   3   6 995.836 899.410   8
   4   3   6 359.492 497.596   6
   4   3   7 4272.85 1220.31   8
   4   3   7 4269.04 1184.80   6
   4   3   8 10078.4 1998.99   8
   4   3   8 12772.3 1879.38   6
   4   3   9 15736.6 2442.28   8
   4   3   9 17827.1 2298.62   6
   4   3  10 18011.0 2695.86   8
   4   3  10 17088.0 2337.71   6
   4   3  11 8124.83 2085.89   8
   4   3  11 7003.59 1571.06   6
   4   3  12 2409.07 1336.16   8
   4   3  12 805.235 747.575   6
   4   3  13 1295.71 1206.42   8
   4   3  13-297.174 818.916   6
   4   3  14 1034.32 935.991   6
   4   3  15 1396.39 944.377   6
   4   3  16 345.434 646.265   6
   4   3  17 1265.84 1101.85   6
   4   3  18 707.028 710.869   6
   4   3  19 395.358 998.450   6
   4   3  20-2288.78 1307.49   6
   4   3  21-1137.39 1036.55   6
   4   4 -18 876.235 979.321   5
   4   4 -17-548.005 774.835   5
   4   4 -16 1593.35 1014.55   5
   4   4 -15 1738.37 1085.47   5
   4   4 -14-36.0721 647.950   5
   4   4 -13 939.105 825.247   5
   4   4 -12 38.2367 588.560   5
   4   4 -11 1900.14 1118.03   5
   4   4 -10 3862.81 1420.98   5
   4   4  -9 7945.25 1746.66   5
   4   4  -8 8087.56 1849.97   5
   4   4  -7 7830.12 1783.69   5
   4   4  -6 2702.41 1013.77   5
   4   4  -5-31.7881 507.928   5
   4   4  -4 2125.37 985.961   8
   4   4  -4 2608.26 1071.84   5
   4   4  -3 14199.1 2064.77   8
   4   4  -3 14580.6 2223.25   5
   4   4  -2 25662.7 2758.94   8
   4   4  -2 24042.1 2310.83   6
   4   4  -2 26012.8 2824.35   5
   4   4  -1 25759.0 2761.63   8
   4   4  -1 25078.0 2331.79   6
   4   4  -1 25137.8 2781.71   5
   4   4   0 14749.9 2019.84   8
   4   4   0 14484.7 1750.54   6
   4   4   0 14149.3 2158.85   5
   4   4   1 5019.66 1200.78   8
   4   4   1 4783.05 1041.13   6
   4   4   1 5285.66 1445.07   5
   4   4   2 933.066 794.911   8
   4   4   2 1128.26 669.191   6
   4   4   3 810.560 893.724   8
   4   4   3-108.382 502.987   6
   4   4   4 21740.1 2675.49   8
   4   4   4 21050.0 2065.13   6
   4   4   5 21459.3 2637.71   8
   4   4   5 20610.0 2110.55   6
   4   4   6 20983.8 2692.72   8
   4   4   6 22545.5 2219.82   6
   4   4   7 13602.6 2285.64   8
   4   4   7 15480.4 1959.46   6
   4   4   8 2475.95 1193.15   8
   4   4   8 5291.50 1189.00   6
   4   4   9 724.968 831.066   8
   4   4   9 818.912 759.481   6
   4   4  10 2021.74 1421.37   8
   4   4  10 2035.24 891.117   6
   4   4  11 5710.56 1627.19   8
   4   4  11 3317.51 960.139   6
   4   4  12 4382.92 1562.86   8
   4   4  12 3504.32 1170.91   6
   4   4  13 5282.60 1797.60   8
   4   4  13 4140.05 1252.15   6
   4   4  14 2434.26 1425.68   8
   4   4  14 2786.69 1136.84   6
   4   4  15 2732.63 1474.18   8
   4   4  15 1090.29 854.368   6
   4   4  16 533.091 820.441   8
   4   4  16 79.5561 726.528   6
   4   4  17 561.893 1131.93   8
   4   4  17-1300.82 1127.19   6
   4   4  18 1108.81 1416.26   8
   4   4  18 1.14395 677.694   6
   4   4  19 3673.44 1828.81   8
   4   4  19 1568.41 1066.41   6
   4   4  20 222.456 1074.70   8
   4   4  20 91.7663 648.763   6
   4   5 -17-252.327 717.013   5
   4   5 -16-179.472 777.853   5
   4   5 -15 112.702 719.128   5
   4   5 -14 504.361 594.932   5
   4   5 -13 504.847 900.939   5
   4   5 -12 1842.37 1114.68   5
   4   5 -11 2967.53 1153.01   5
   4   5 -10 2048.18 1117.25   5
   4   5  -9 436.871 770.684   5
   4   5  -8 1088.27 862.133   5
   4   5  -7 1731.13 936.753   5
   4   5  -6 4700.12 1402.05   5
   4   5  -5 6641.34 1590.03   5
   4   5  -4 14382.8 2305.67   5
   4   5  -3 20779.6 2699.43   8
   4   5  -3 21030.5 2659.13   5
   4   5  -2 7387.48 1534.03   8
   4   5  -2 6613.77 1590.39   5
   4   5  -1 394.925 897.712   8
   4   5  -1-518.749 506.706   6
   4   5  -1 1195.32 871.447   5
   4   5   0 5093.14 1432.84   8
   4   5   0 5047.97 964.683   6
   4   5   0 6235.20 1556.68   5
   4   5   1 29545.5 3048.77   8
   4   5   1 27227.7 2286.60   6
   4   5   1 30748.0 3190.20   5
   4   5   2 52520.1 4099.39   8
   4   5   2 48900.6 3143.70   6
   4   5   3 36490.8 3447.31   8
   4   5   3 34160.9 2554.80   6
   4   5   4 11407.7 2046.60   8
   4   5   4 7691.68 1162.76   6
   4   5   5-217.483 566.927   8
   4   5   5 216.282 341.332   6
   4   5   6 2141.32 1050.94   8
   4   5   6 648.037 501.404   6
   4   5   7 3535.38 1292.60   8
   4   5   7 5384.14 1071.63   6
   4   5   8 9561.88 2016.24   8
   4   5   8 10220.6 1537.05   6
   4   5   9 11364.5 2281.44   8
   4   5   9 12591.0 1766.56   6
   4   5  10 8605.66 1925.85   8
   4   5  10 8784.97 1533.17   6
   4   5  11 5408.98 1707.04   8
   4   5  11 4077.59 1127.54   6
   4   5  12 179.369 903.043   8
   4   5  12 836.994 582.699   6
   4   5  13-1096.04 964.230   8
   4   5  13 317.096 516.556   6
   4   5  14 1703.65 1332.19   8
   4   5  14 1760.88 750.294   6
   4   5  15 1744.60 1239.78   8
   4   5  16 2516.60 1577.40   8
   4   5  17-184.689 808.275   8
   4   5  18 1658.87 1073.65   8
   4   5  19 726.359 1291.80   8
   4   6 -16 634.243 656.966   5
   4   6 -15 994.891 1045.90   5
   4   6 -14-954.249 1033.16   5
   4   6 -13 1892.10 1148.03   5
   4   6 -12 167.773 1014.07   5
   4   6 -11 72.1222 709.300   5
   4   6 -10 1320.52 1057.75   5
   4   6  -9 3314.19 1516.62   5
   4   6  -8 4880.53 1449.21   5
   4   6  -7 6254.48 1728.14   5
   4   6  -6 1311.08 791.879   5
   4   6  -5 106.977 558.533   5
   4   6  -4 5206.71 1408.67   5
   4   6  -3 14157.9 2300.15   8
   4   6  -3 15104.4 2403.03   5
   4   6  -2 17287.3 2523.25   8
   4   6  -2 12100.3 2050.62   5
   4   6  -1 9383.00 1769.44   8
   4   6  -1 10364.3 2037.14   5
   4   6   0 6292.33 1555.80   8
   4   6   0 5362.01 1442.04   5
   4   6   1 2721.73 1179.23   8
   4   6   1 1755.30 583.534   6
   4   6   1 1377.02 955.616   5
   4   6   2 1059.52 854.646   8
   4   6   2 505.165 406.245   6
   4   6   2 2694.66 1290.67   5
   4   6   3 2813.35 1161.07   8
   4   6   3 672.373 313.329   6
   4   6   4 6033.50 1621.78   8
   4   6   4 5369.52 954.950   6
   4   6   5 7838.25 1791.21   8
   4   6   6 20898.9 2877.70   8
   4   6   7 11898.0 2223.07   8
   4   6   8 2501.14 1015.66   8
   4   6   9 808.994 1112.87   8
   4   6  10 1254.18 1067.55   8
   4   6  11 3503.61 1559.21   8
   4   6  12 5750.45 1926.66   8
   4   6  13 4309.18 1843.41   8
   4   6  14 1643.78 1411.77   8
   4   6  15 2414.40 1332.86   8
   4   6  16 2050.20 1382.69   8
   4   6  17 3367.78 1731.39   8
   4   6  18 1372.52 1299.32   8
   4   6  19 3187.18 1745.15   8
   4   7 -15-284.042 947.698   5
   4   7 -14-733.873 763.623   5
   4   7 -13 924.950 962.516   5
   4   7 -12 2227.65 1385.28   5
   4   7 -11 2909.91 1433.60   5
   4   7 -10 1334.15 1009.90   5
   4   7  -9 453.160 877.503   5
   4   7  -8 139.166 800.036   5
   4   7  -7 2940.06 1383.72   5
   4   7  -6 4035.65 1558.02   5
   4   7  -5 8378.90 1855.98   5
   4   7  -4 7985.35 1908.69   5
   4   7  -3 4818.56 1511.76   5
   4   7  -2 686.730 853.225   8
   4   7  -2 1553.62 824.984   5
   4   7  -1 644.584 874.407   8
   4   7  -1 224.140 813.291   5
   4   7   0 7288.97 1727.09   8
   4   7   0 9952.70 1927.20   5
   4   7   1 21352.5 2915.05   8
   4   7   1 15939.8 2538.56   5
   4   7   2 15204.9 2582.24   8
   4   7   2 20169.7 2817.37   5
   4   7   3 10044.3 2083.81   8
   4   7   4 7425.54 1844.77   8
   4   7   5 1699.83 864.373   8
   4   7   6-160.628 591.779   8
   4   7   7 6952.57 1953.34   8
   4   7   8 7989.65 2086.30   8
   4   7   9 6308.97 1877.53   8
   4   7  10 6408.01 1917.59   8
   4   7  11 3678.91 1604.32   8
   4   7  12 2399.22 1434.43   8
   4   7  13 2331.57 1450.46   8
   4   7  14 4574.10 1982.07   8
   4   7  15 1668.20 1399.58   8
   4   7  16 1352.35 1409.36   8
   4   7  17 694.652 1196.60   8
   4   7  18 1363.43 1406.75   8
   4   8 -13-69.9551 727.734   5
   4   8 -12 199.986 735.823   5
   4   8 -11 969.926 1093.86   5
   4   8 -10 210.069 586.286   5
   4   8  -9 1014.81 834.614   5
   4   8  -8 4131.58 1551.02   5
   4   8  -7 3546.28 1432.57   5
   4   8  -6 1619.94 1050.66   5
   4   8  -5 827.233 956.706   5
   4   8  -4 2766.95 1274.17   5
   4   8  -3 3616.78 1444.80   5
   4   8  -2 6233.03 1653.38   5
   4   8  -1 10178.1 2176.73   8
   4   8  -1 6413.87 1677.55   5
   4   8   0 5974.67 1760.77   8
   4   8   0 5151.27 1466.06   5
   4   8   1 783.542 951.290   8
   4   8   1 2619.21 1251.36   5
   4   8   2 733.559 1129.16   8
   4   8   2 2678.59 1360.19   5
   4   8   3 549.184 972.341   8
   4   8   4 6206.01 2001.97   8
   4   8   5 11246.6 2295.01   8
   4   8   6 9188.38 2076.84   8
   4   8   7 2297.38 1395.69   8
   4   8   8 325.543 681.994   8
   4   8   9 2574.04 1264.25   8
   4   8  10 945.992 1029.60   8
   4   8  11 2496.66 1297.16   8
   4   8  12 1020.43 830.680   8
   4   8  13 2161.41 1250.37   8
   4   8  14 3919.86 1774.56   8
   4   8  15 1968.27 1542.87   8
   4   8  16 1660.30 1383.95   8
   4   8  17 2975.24 1642.35   8
   4   9 -12 1182.64 1108.06   5
   4   9 -11 1003.78 1290.90   5
   4   9 -10 655.771 808.965   5
   4   9  -9 585.474 576.352   5
   4   9  -8 1861.74 1474.34   5
   4   9  -7 1689.49 1266.12   5
   4   9  -6 2263.08 1352.29   5
   4   9  -5 1494.40 1029.69   5
   4   9  -4 1615.87 1061.74   5
   4   9  -3 2124.49 1129.61   5
   4   9  -2 1565.92 563.901   5
   4   9  -1 609.771 890.123   8
   4   9  -1 2543.93 1190.26   5
   4   9   0 4454.50 1552.42   8
   4   9   0 2221.83 1105.85   5
   4   9   1 5170.15 1608.84   8
   4   9   1 3207.61 1240.30   5
   4   9   2 7036.09 2067.65   8
   4   9   2 6287.64 1615.03   5
   4   9   3 3995.39 1706.83   8
   4   9   4 3912.54 1446.59   8
   4   9   5 1902.97 1474.54   8
   4   9   6 2384.44 1375.74   8
   4   9   7 2987.75 1465.90   8
   4   9   8 2554.63 1667.77   8
   4   9   9 4255.48 1819.13   8
   4   9  10 3220.68 1370.13   8
   4   9  11 416.922 876.129   8
   4   9  12 2474.41 1493.40   8
   4   9  13 43.9749 688.956   8
   4   9  14 1804.76 1574.15   8
   4   9  15 634.254 1159.78   8
   4   9  16 1592.56 1581.85   8
   4  10 -10 52.0904 717.125   5
   4  10  -9 1028.40 810.997   5
   4  10  -8 2595.43 1306.33   5
   4  10  -7 359.656 783.776   5
   4  10  -6 183.513 670.995   5
   4  10  -5 155.729 583.723   5
   4  10  -4-132.801 650.938   5
   4  10  -3 2096.68 1085.57   5
   4  10  -2 2533.02 1209.60   5
   4  10  -1 1750.71 1019.98   5
   4  10   0-244.907 494.610   5
   4  10   1 296.634 1024.35   8
   4  10   1 1842.71 1036.97   5
   4  10   2 2539.66 1377.05   8
   4  10   3 2231.07 1333.03   8
   4  10   4 1716.08 1075.24   8
   4  10   5 3173.83 1697.35   8
   4  10   6 4142.83 1869.98   8
   4  10   7 2263.39 1435.96   8
   4  10   8 2010.63 1399.93   8
   4  10   9 106.527 1057.75   8
   4  10  10 1504.89 1297.62   8
   4  10  11 392.244 714.099   8
   4  10  12 2713.54 1388.68   8
   4  10  13 1569.84 1369.61   8
   4  10  14 1104.94 1214.70   8
   4  11  -7 697.003 988.085   5
   4  11  -6 1174.65 1026.93   5
   4  11  -5 1809.98 1109.27   5
   4  11  -4 563.820 820.858   5
   4  11  -3-915.310 598.967   5
   4  11  -2 382.785 795.809   5
   4  11  -1 1792.70 1227.75   5
   4  11   0 1278.18 941.101   5
   4  11   1 2419.82 1219.96   5
   4  11   2-175.414 903.764   8
   4  11   3 2012.37 1349.19   8
   4  11   4 1372.95 1483.01   8
   4  11   5 2758.48 1728.27   8
   4  11   6 401.133 853.253   8
   4  11   7 3546.58 1756.05   8
   4  11   8 2371.83 1426.04   8
   4  11   9 1850.74 1285.65   8
   4  11  10 2025.49 1417.60   8
   4  11  11-97.3966 903.380   8
   4  12   4 788.682 1461.16   8
   4  12   5 2952.55 1689.48   8
   5  -9  -5-1184.13 1178.17   7
   5  -9  -4 342.778 781.543   7
   5  -9  -3 2575.01 1329.25   7
   5  -9  -2 1466.07 1045.84   7
   5  -9  -1 767.799 628.167   7
   5  -9   0 804.003 813.474   7
   5  -9   1 558.251 833.976   7
   5  -9   2 478.258 846.388   7
   5  -8  -9 715.746 1144.82   7
   5  -8  -8 787.373 804.543   7
   5  -8  -8 361.733 918.082   6
   5  -8  -7 679.884 932.184   7
   5  -8  -7 942.268 981.166   6
   5  -8  -6 998.839 969.250   7
   5  -8  -6 1880.56 1196.13   6
   5  -8  -5 1988.04 1163.84   7
   5  -8  -5-185.921 568.488   6
   5  -8  -4 251.360 691.952   7
   5  -8  -4 873.627 665.642   6
   5  -8  -3-473.701 567.020   7
   5  -8  -3-174.916 621.725   6
   5  -8  -2 411.485 866.615   7
   5  -8  -2-328.312 534.186   6
   5  -8  -1 104.719 445.452   7
   5  -8  -1 602.390 926.998   6
   5  -8   0 340.906 651.488   7
   5  -8   0-494.694 664.273   6
   5  -8   1 239.148 745.157   7
   5  -8   1 579.078 556.613   6
   5  -8   2 803.690 822.963   7
   5  -8   2 253.376 585.675   6
   5  -8   3-11.7704 559.306   7
   5  -8   3 1111.45 1017.24   6
   5  -8   4 1637.53 1292.57   6
   5  -8   5 72.5422 582.382   6
   5  -8   6-252.438 1103.25   6
   5  -8   7-694.832 1412.84   6
   5  -8   8-86.0845 807.869   6
   5  -7 -12 531.739 688.628   7
   5  -7 -11 1499.31 1061.85   7
   5  -7 -10 1595.61 1009.77   7
   5  -7  -9 2106.47 1248.91   7
   5  -7  -8 842.421 713.876   7
   5  -7  -8 272.585 710.220   6
   5  -7  -7 1269.37 1018.20   7
   5  -7  -7 709.864 1013.31   6
   5  -7  -6-1062.20 888.645   7
   5  -7  -6-47.9727 547.613   6
   5  -7  -5 690.838 829.741   7
   5  -7  -5 502.251 546.356   6
   5  -7  -4 535.325 625.857   7
   5  -7  -4-63.1992 506.334   6
   5  -7  -3 1052.29 911.902   7
   5  -7  -3 672.214 600.605   6
   5  -7  -2 684.947 703.738   7
   5  -7  -2 769.027 776.081   6
   5  -7  -1 578.941 450.938   7
   5  -7  -1 693.483 964.244   6
   5  -7   0 334.898 622.292   7
   5  -7   0 608.207 718.613   6
   5  -7   1-370.972 428.089   7
   5  -7   1 519.371 559.870   6
   5  -7   2-699.460 738.075   7
   5  -7   2-626.771 633.665   6
   5  -7   3 512.142 665.992   7
   5  -7   3 1132.96 855.730   6
   5  -7   4 1659.15 1240.39   6
   5  -7   5 552.023 753.376   6
   5  -7   6 1481.09 1001.12   6
   5  -7   7-910.777 914.250   6
   5  -7   8 2395.95 1493.25   6
   5  -7   9 259.265 818.309   6
   5  -7  10 287.967 927.848   6
   5  -6 -14 1424.83 684.590   7
   5  -6 -13-424.430 762.810   7
   5  -6 -12 1929.46 1082.79   7
   5  -6 -11 887.729 1093.47   7
   5  -6 -10 929.730 785.665   7
   5  -6  -9 1688.79 1085.07   7
   5  -6  -8 440.251 620.702   7
   5  -6  -8 1471.39 1180.82   6
   5  -6  -7 3191.99 1279.59   7
   5  -6  -7 1185.68 1134.78   6
   5  -6  -6 1377.18 977.317   7
   5  -6  -6 1961.21 1345.89   6
   5  -6  -5 1815.93 1037.03   7
   5  -6  -5 918.856 831.678   6
   5  -6  -4 561.268 670.677   7
   5  -6  -4 2737.34 1266.09   6
   5  -6  -3-229.413 498.570   7
   5  -6  -3 161.594 530.355   6
   5  -6  -2 1741.39 1022.29   7
   5  -6  -2 1598.70 908.123   6
   5  -6  -1 24.1160 455.341   7
   5  -6  -1 1003.92 846.615   6
   5  -6   0 1810.05 1002.21   7
   5  -6   0 2064.01 1037.83   6
   5  -6   1 1392.70 888.701   7
   5  -6   1 5029.04 1789.72   6
   5  -6   2 3129.59 1182.90   7
   5  -6   2 2401.48 1188.11   6
   5  -6   3 2515.33 1150.61   7
   5  -6   3 2710.57 1232.64   6
   5  -6   4 1390.03 723.400   7
   5  -6   4 1500.43 680.538   6
   5  -6   5 1311.08 1134.49   6
   5  -6   6-264.714 780.412   6
   5  -6   7 2053.94 1315.64   6
   5  -6   8 2399.72 1712.34   6
   5  -6   9-805.811 832.117   6
   5  -6  10 1556.91 1275.45   6
   5  -6  11 3315.53 1856.56   6
   5  -6  12 1563.99 1603.52   6
   5  -5 -15-205.960 729.883   7
   5  -5 -14-549.445 791.377   7
   5  -5 -13-200.646 599.237   7
   5  -5 -12 233.302 690.607   7
   5  -5 -11 1389.12 988.073   7
   5  -5 -10 693.730 739.596   7
   5  -5  -9 719.078 568.363   7
   5  -5  -9 3165.23 1380.48   6
   5  -5  -8 3161.25 1224.93   7
   5  -5  -8 1817.73 1225.83   6
   5  -5  -7 953.349 855.086   7
   5  -5  -7 653.344 910.222   6
   5  -5  -6 1049.23 795.682   7
   5  -5  -6-1776.57 851.089   6
   5  -5  -5-199.130 655.980   7
   5  -5  -5 749.248 1039.21   6
   5  -5  -4 861.655 722.636   7
   5  -5  -4 363.476 883.895   6
   5  -5  -3 1529.44 741.196   7
   5  -5  -3 2388.66 1226.51   6
   5  -5  -2 3393.62 1076.07   7
   5  -5  -2 4697.34 1590.40   6
   5  -5  -1 2010.21 894.981   7
   5  -5  -1 3184.11 1486.32   6
   5  -5   0 1105.13 672.983   7
   5  -5   0 1432.86 909.784   6
   5  -5   1 1013.62 688.475   7
   5  -5   1 1071.88 979.176   6
   5  -5   2 130.225 485.947   7
   5  -5   2 926.034 1360.98   6
   5  -5   3 976.990 754.267   7
   5  -5   3 812.237 647.293   6
   5  -5   4 3487.43 1200.55   7
   5  -5   4 3292.58 1363.48   6
   5  -5   5 3708.78 1740.51   6
   5  -5   6 3820.47 1598.19   6
   5  -5   7 2659.85 1402.95   6
   5  -5   8 4013.35 1836.88   6
   5  -5   9 145.909 746.261   6
   5  -5  10 1379.35 1305.54   6
   5  -5  11 901.657 1127.71   6
   5  -5  12 1003.41 1318.52   6
   5  -5  13 2867.85 1777.56   6
   5  -4 -16-419.451 676.049   7
   5  -4 -15 370.676 624.108   7
   5  -4 -14 803.708 848.193   7
   5  -4 -13 1086.56 862.848   7
   5  -4 -12 1032.48 513.334   7
   5  -4 -11-245.675 451.454   7
   5  -4 -10 621.412 795.854   7
   5  -4  -9 769.171 743.939   7
   5  -4  -9 1360.08 1113.69   6
   5  -4  -8-100.505 461.424   7
   5  -4  -8 220.422 860.983   6
   5  -4  -7 2256.17 998.797   7
   5  -4  -7 627.206 1018.54   6
   5  -4  -6 2527.52 887.390   7
   5  -4  -6 2708.72 1269.49   6
   5  -4  -5 2534.02 1087.48   7
   5  -4  -5 5530.80 1761.55   6
   5  -4  -4 2391.74 964.581   7
   5  -4  -4 3040.14 1281.46   6
   5  -4  -3 1780.51 825.787   7
   5  -4  -3 589.520 521.334   6
   5  -4  -2 246.542 481.537   7
   5  -4  -2-697.362 973.878   6
   5  -4  -1 1741.38 732.025   7
   5  -4  -1 1493.25 920.266   6
   5  -4   0 3189.79 958.227   7
   5  -4   0 4557.27 1639.97   6
   5  -4   1 4426.71 1136.03   7
   5  -4   1 7769.79 1842.13   6
   5  -4   2 5087.22 1216.26   7
   5  -4   2 8002.90 1873.69   6
   5  -4   3 5141.11 1159.12   7
   5  -4   3 4811.03 1664.89   6
   5  -4   4 190.495 457.793   7
   5  -4   4 837.087 750.234   6
   5  -4   5 3071.24 1411.82   6
   5  -4   6 1825.17 1317.94   6
   5  -4   7 2383.97 1281.97   6
   5  -4   8 3535.32 1304.06   6
   5  -4   9 3218.77 1350.71   6
   5  -4  10 1680.74 1074.96   6
   5  -4  11 687.733 1249.55   6
   5  -4  12 2350.40 1655.96   6
   5  -4  13 1505.06 828.357   6
   5  -4  14 189.548 1361.90   6
   5  -3 -17 59.2841 672.809   7
   5  -3 -16 1168.61 989.814   7
   5  -3 -15 1520.52 1044.81   7
   5  -3 -14 91.2253 692.581   7
   5  -3 -13 1376.65 1062.34   7
   5  -3 -12 868.916 903.438   7
   5  -3 -11-97.4041 531.473   7
   5  -3 -10 1878.01 946.887   7
   5  -3  -9 1381.66 708.311   7
   5  -3  -9 2580.94 1343.71   6
   5  -3  -8 2172.96 1014.70   7
   5  -3  -8 4122.52 1613.76   6
   5  -3  -7 712.662 516.985   7
   5  -3  -7 1278.92 862.047   6
   5  -3  -6 220.113 599.172   7
   5  -3  -6 1334.55 1175.51   6
   5  -3  -5-507.872 599.279   7
   5  -3  -5 1243.10 919.095   6
   5  -3  -4 2675.30 993.622   7
   5  -3  -4 2136.44 1121.51   6
   5  -3  -3 11176.3 1784.78   7
   5  -3  -3 14300.8 2397.16   6
   5  -3  -2 11395.0 1753.45   7
   5  -3  -2 14912.5 2515.40   6
   5  -3  -1 9473.99 1534.54   7
   5  -3  -1 8296.99 1860.97   6
   5  -3   0 2121.27 775.014   7
   5  -3   0 5179.99 1494.02   6
   5  -3   1-109.580 421.075   7
   5  -3   1 514.600 640.715   6
   5  -3   2 2747.40 784.816   7
   5  -3   2 2444.00 1233.44   6
   5  -3   3 4460.67 1000.39   7
   5  -3   3 5855.47 1585.56   6
   5  -3   4 6317.76 1138.85   7
   5  -3   4 7949.89 1882.77   6
   5  -3   5 7057.53 1854.76   6
   5  -3   6 4255.66 1569.13   6
   5  -3   7 1365.75 706.142   6
   5  -3   8 3019.54 1484.62   6
   5  -3   9 764.389 823.924   6
   5  -3  10 2562.97 1438.87   6
   5  -3  11 2584.84 1652.67   6
   5  -3  12 3349.81 1602.75   6
   5  -3  13 2608.52 1627.28   6
   5  -3  14-765.427 1259.67   6
   5  -3  15 989.298 1214.03   6
   5  -2 -17-49.9699 820.993   7
   5  -2 -16 258.751 737.221   7
   5  -2 -15 577.797 750.118   7
   5  -2 -14 518.576 759.453   7
   5  -2 -13 2282.16 1141.92   7
   5  -2 -12-1097.82 615.959   7
   5  -2 -11 329.018 586.490   7
   5  -2 -10 616.083 627.872   7
   5  -2  -9 799.573 731.281   7
   5  -2  -9 425.441 409.699   5
   5  -2  -8 1517.41 795.779   7
   5  -2  -8 2796.91 1230.25   6
   5  -2  -8 3225.97 955.693   5
   5  -2  -7 6378.27 1446.35   7
   5  -2  -7 5245.81 1528.48   6
   5  -2  -6 4862.81 1207.56   7
   5  -2  -6 7179.25 1825.32   6
   5  -2  -5 3573.72 1030.98   7
   5  -2  -5 4609.57 1404.66   6
   5  -2  -4 430.901 414.967   7
   5  -2  -4 964.469 1130.71   6
   5  -2  -3 246.712 448.360   7
   5  -2  -3 663.870 769.609   6
   5  -2  -2 910.143 573.315   7
   5  -2  -2 252.568 630.375   6
   5  -2  -1 439.355 455.866   7
   5  -2  -1 1247.38 910.774   6
   5  -2   0 2537.24 822.671   7
   5  -2   0 3394.28 1386.04   6
   5  -2   1 7061.28 1177.27   7
   5  -2   1 8334.11 1989.11   6
   5  -2   2 11028.0 1457.68   8
   5  -2   2 10826.7 1386.64   7
   5  -2   2 15136.9 2331.84   6
   5  -2   3 7732.17 1341.97   8
   5  -2   3 7955.13 1180.66   7
   5  -2   3 9658.89 1994.92   6
   5  -2   4 1555.92 604.026   8
   5  -2   4 1608.68 763.619   6
   5  -2   5-239.892 580.539   6
   5  -2   6 5117.43 1698.14   6
   5  -2   7 4635.07 1592.75   6
   5  -2   8 6151.95 1761.56   6
   5  -2   9 5107.23 1630.99   6
   5  -2  10 2385.39 1311.78   6
   5  -2  11 1461.59 1085.28   6
   5  -2  12 480.622 1092.09   6
   5  -2  13 1276.14 1273.55   6
   5  -2  14 1148.79 1283.34   6
   5  -2  15 484.709 793.844   6
   5  -2  16 1579.56 1112.35   6
   5  -1 -18 1061.24 967.600   7
   5  -1 -17 1199.86 996.990   7
   5  -1 -16 2132.50 1218.48   7
   5  -1 -15 627.370 733.256   7
   5  -1 -14 129.787 448.902   7
   5  -1 -13 2190.56 1097.04   7
   5  -1 -13 97.8239 407.908   5
   5  -1 -12 381.244 423.397   7
   5  -1 -12-317.866 552.715   5
   5  -1 -11 1724.92 1037.48   7
   5  -1 -11 1451.45 816.021   5
   5  -1 -10 2740.32 1061.35   7
   5  -1 -10 3145.43 1030.92   5
   5  -1  -9 765.061 652.299   7
   5  -1  -9 2388.94 904.666   5
   5  -1  -8 1580.28 759.996   7
   5  -1  -8 2998.25 980.984   5
   5  -1  -7 1154.39 530.277   7
   5  -1  -7 2083.77 1199.89   6
   5  -1  -7 2659.95 927.463   5
   5  -1  -6 497.522 520.241   7
   5  -1  -6 1065.12 1037.27   6
   5  -1  -6 417.716 624.697   5
   5  -1  -5 908.885 590.158   7
   5  -1  -5 172.183 719.395   6
   5  -1  -4 6717.15 1303.23   7
   5  -1  -4 7874.15 1846.79   6
   5  -1  -3 18878.2 2099.08   7
   5  -1  -3 19978.7 2691.06   6
   5  -1  -2 13984.8 1729.33   7
   5  -1  -2 17470.0 2496.07   6
   5  -1  -1 16825.8 1631.27   8
   5  -1  -1 16245.4 1820.99   7
   5  -1  -1 15893.6 2397.56   6
   5  -1   0 925.855 377.814   8
   5  -1   0 2193.82 687.983   7
   5  -1   0 940.455 684.340   6
   5  -1   1 435.473 398.381   8
   5  -1   1 1888.89 617.794   7
   5  -1   1 1443.63 1018.00   6
   5  -1   2 6699.65 1214.60   8
   5  -1   2 5857.70 991.682   7
   5  -1   2 7804.35 1627.94   6
   5  -1   3 10395.9 1548.19   8
   5  -1   3 9726.31 1202.28   7
   5  -1   3 12856.4 2242.24   6
   5  -1   4 11588.0 1797.34   8
   5  -1   4 13360.2 2326.07   6
   5  -1   5 8108.57 1510.90   8
   5  -1   5 10995.9 2156.90   6
   5  -1   6 3698.69 1199.82   8
   5  -1   6 4605.50 1425.61   6
   5  -1   7 1515.04 1110.79   6
   5  -1   8 279.884 675.731   6
   5  -1   9 3566.97 1359.68   6
   5  -1  10 3296.65 1264.63   6
   5  -1  11 5253.27 1919.89   6
   5  -1  12 1494.98 1016.25   6
   5  -1  13 57.1744 935.004   6
   5  -1  14 1156.40 922.716   6
   5  -1  15-1118.22 1331.63   6
   5  -1  16 1114.63 990.641   6
   5  -1  17-1263.99 1572.85   6
   5   0 -18 280.776 773.955   7
   5   0 -17 1682.41 1322.69   7
   5   0 -16-363.419 434.004   7
   5   0 -16 292.016 528.991   5
   5   0 -15 1619.46 1073.29   7
   5   0 -15-196.764 529.968   5
   5   0 -14 69.1838 479.976   7
   5   0 -14-379.149 744.185   5
   5   0 -13 888.660 686.584   7
   5   0 -13 519.233 749.080   5
   5   0 -12 1061.31 784.210   7
   5   0 -12 523.922 757.202   5
   5   0 -11 317.848 434.219   7
   5   0 -11-43.4001 455.860   5
   5   0 -10 447.764 600.632   7
   5   0 -10 455.317 776.344   5
   5   0  -9 1108.56 693.803   7
   5   0  -9 293.373 513.088   5
   5   0  -8-43.2549 491.003   7
   5   0  -8 1502.63 993.272   5
   5   0  -7 5195.42 1269.15   7
   5   0  -7 5119.14 1581.96   6
   5   0  -7 6981.45 1522.56   5
   5   0  -6 6297.18 1330.07   7
   5   0  -6 9457.88 2054.28   6
   5   0  -6 9448.27 1732.45   5
   5   0  -5 4349.15 1113.72   7
   5   0  -5 5910.87 1583.65   6
   5   0  -5 5541.85 1337.87   5
   5   0  -4 1861.90 697.995   7
   5   0  -4 1208.24 920.700   6
   5   0  -4 2647.35 962.943   5
   5   0  -3-65.3914 347.914   8
   5   0  -3-263.410 381.559   7
   5   0  -3 615.028 496.008   6
   5   0  -2 301.271 379.336   8
   5   0  -2-185.008 406.386   7
   5   0  -2 684.887 773.582   6
   5   0  -1 5088.89 1034.75   8
   5   0  -1 3152.70 822.066   7
   5   0  -1 4032.45 1214.06   6
   5   0   0 12241.5 1524.46   8
   5   0   0 11329.2 1393.40   7
   5   0   0 13480.5 2188.11   6
   5   0   1 12392.1 1662.79   8
   5   0   1 12314.6 1407.02   7
   5   0   1 13795.8 2236.87   6
   5   0   2 12191.7 1718.58   8
   5   0   2 10949.8 1248.20   7
   5   0   2 12395.4 2035.16   6
   5   0   3 5585.66 1216.93   8
   5   0   3 5584.31 854.262   7
   5   0   3 6234.37 1440.57   6
   5   0   4 1063.55 680.613   8
   5   0   4 655.478 584.778   6
   5   0   5 536.095 586.644   8
   5   0   5 805.524 803.508   6
   5   0   6 6186.41 1511.82   8
   5   0   6 5137.33 1517.63   6
   5   0   7 5868.16 1446.85   8
   5   0   7 8054.36 1880.19   6
   5   0   8 9816.32 1985.67   8
   5   0   8 7081.83 1826.88   6
   5   0   9 6165.39 1674.01   6
   5   0  10 2580.67 1203.21   6
   5   0  11 655.322 821.486   6
   5   0  12-298.390 739.023   6
   5   0  13 9.05548 663.480   6
   5   0  14 1330.69 853.970   6
   5   0  15-157.188 803.662   6
   5   0  16 540.276 728.287   6
   5   0  17-440.868 982.401   6
   5   0  18-2216.10 1705.60   6
   5   1 -18 353.484 758.829   5
   5   1 -17-2410.27 1179.09   5
   5   1 -16-195.418 631.043   5
   5   1 -15 61.4428 476.262   7
   5   1 -15-1371.16 1082.42   5
   5   1 -14-73.0726 584.104   7
   5   1 -14 153.033 586.881   5
   5   1 -13 1516.73 1008.24   7
   5   1 -13 794.976 902.691   5
   5   1 -12 1716.09 957.741   7
   5   1 -12 385.740 791.684   5
   5   1 -11 973.948 581.362   7
   5   1 -11 1132.23 513.542   5
   5   1 -10 3389.75 1226.74   7
   5   1 -10 3968.11 1311.71   5
   5   1  -9 1377.29 890.355   7
   5   1  -9 2352.62 1036.28   5
   5   1  -8 2436.65 955.672   7
   5   1  -8 2245.37 1023.09   5
   5   1  -7 1081.35 648.646   7
   5   1  -7 1002.15 748.495   5
   5   1  -6 440.712 524.232   7
   5   1  -6 194.454 544.924   6
   5   1  -6 498.036 860.743   5
   5   1  -5 403.287 490.687   7
   5   1  -5 1049.51 679.868   5
   5   1  -4 6799.68 1296.11   8
   5   1  -4 5740.24 1170.46   7
   5   1  -4 7433.23 1683.66   6
   5   1  -4 9380.11 1717.87   5
   5   1  -3 12908.2 1722.09   8
   5   1  -3 11971.2 1651.67   7
   5   1  -3 14526.9 2385.82   6
   5   1  -3 13152.2 2033.39   5
   5   1  -2 13017.2 1690.13   8
   5   1  -2 13835.2 1646.35   7
   5   1  -2 14920.4 2190.07   6
   5   1  -1 13140.1 1663.22   8
   5   1  -1 12104.5 1512.01   7
   5   1  -1 15214.6 2241.02   6
   5   1   0 318.506 421.309   8
   5   1   0-294.421 318.481   7
   5   1   1 222.215 477.577   8
   5   1   1-114.857 291.950   7
   5   1   1 449.931 723.651   6
   5   1   2 4519.22 1143.23   8
   5   1   2 3185.83 655.917   7
   5   1   2 4331.85 1348.37   6
   5   1   3 12896.7 1947.11   8
   5   1   3 12764.2 2036.34   6
   5   1   4 17130.7 2242.07   8
   5   1   4 18253.1 2510.02   6
   5   1   5 14276.5 2100.65   8
   5   1   5 15375.3 2341.07   6
   5   1   6 5094.45 1271.83   8
   5   1   6 6651.02 1605.35   6
   5   1   7 1883.90 946.124   8
   5   1   7 970.196 627.873   6
   5   1   8 773.308 695.551   8
   5   1   8 752.926 861.351   6
   5   1   9 2431.88 1070.21   8
   5   1   9 3685.37 1329.85   6
   5   1  10 4649.50 1683.51   8
   5   1  10 4538.68 1556.65   6
   5   1  11 6349.29 1884.00   6
   5   1  12 3415.46 1530.84   6
   5   1  13 1489.63 1016.89   6
   5   1  14 1517.30 933.743   6
   5   1  15-642.427 1073.21   6
   5   1  16-1372.63 1089.58   6
   5   1  17-248.627 910.497   6
   5   1  18 338.922 809.123   6
   5   2 -18-136.375 753.143   5
   5   2 -17 391.632 1058.74   5
   5   2 -16 5.47050 572.771   5
   5   2 -15 1332.66 1157.68   5
   5   2 -14 383.892 649.471   5
   5   2 -13 1117.25 910.020   5
   5   2 -12 1000.82 580.537   5
   5   2 -11 687.440 663.515   5
   5   2 -10-161.882 561.283   7
   5   2 -10 282.387 562.739   5
   5   2  -9 284.303 438.125   7
   5   2  -9 1591.62 931.823   5
   5   2  -8 1137.68 802.042   7
   5   2  -8 1962.68 942.887   5
   5   2  -7 10366.1 1743.08   7
   5   2  -7 10423.7 1928.62   5
   5   2  -6 7796.82 1492.62   7
   5   2  -6 9221.79 1872.25   6
   5   2  -6 10359.6 1901.37   5
   5   2  -5 7453.03 1483.79   7
   5   2  -5 8144.20 1787.88   6
   5   2  -5 8386.11 1694.84   5
   5   2  -4 3394.94 1033.89   8
   5   2  -4 2077.31 805.420   7
   5   2  -4 2383.13 1056.88   6
   5   2  -4 3608.04 1277.70   5
   5   2  -3-537.721 536.905   8
   5   2  -3 583.651 433.513   7
   5   2  -3-124.138 602.126   6
   5   2  -3 1126.48 887.266   5
   5   2  -2 5291.96 1191.94   8
   5   2  -2 4563.35 978.626   7
   5   2  -2 2728.33 941.652   6
   5   2  -2 4070.74 1263.61   5
   5   2  -1 12419.7 1808.10   8
   5   2  -1 11326.0 2030.13   6
   5   2   0 12587.3 1909.67   8
   5   2   0 12352.7 1985.07   6
   5   2   1 14486.9 1968.58   8
   5   2   1 14310.6 2107.66   6
   5   2   2 11759.6 1846.44   8
   5   2   2 10536.7 1798.04   6
   5   2   3 4533.70 1249.86   8
   5   2   3 3090.09 1016.40   6
   5   2   4 742.519 704.262   8
   5   2   4-240.143 516.359   6
   5   2   5 1779.79 905.634   8
   5   2   5 3373.26 1111.06   6
   5   2   6 5667.99 1440.93   8
   5   2   6 5235.71 1427.44   6
   5   2   7 9814.76 2007.77   8
   5   2   7 10734.5 1963.82   6
   5   2   8 8270.87 1830.50   8
   5   2   8 8997.90 1889.37   6
   5   2   9 6537.31 1703.89   8
   5   2   9 6832.21 1715.76   6
   5   2  10 2793.47 1265.56   8
   5   2  10 2067.35 1132.67   6
   5   2  11 381.797 611.710   8
   5   2  11 458.127 702.217   6
   5   2  12 588.373 686.987   8
   5   2  12 811.031 853.440   6
   5   2  13 733.533 736.063   8
   5   2  13 2108.13 1217.40   6
   5   2  14 4109.23 1905.74   8
   5   2  14 1009.71 760.718   6
   5   2  15 3362.20 1571.29   8
   5   2  15 340.174 816.758   6
   5   2  16 204.798 958.154   6
   5   2  17-194.422 949.780   6
   5   2  18-827.786 924.726   6
   5   2  19-1231.48 1503.72   6
   5   3 -18 1233.42 1226.63   5
   5   3 -17-330.715 616.441   5
   5   3 -16-336.544 710.405   5
   5   3 -15 370.967 582.926   5
   5   3 -14 256.507 761.776   5
   5   3 -13 541.670 817.712   5
   5   3 -12-170.535 563.291   5
   5   3 -11 3634.84 1389.67   5
   5   3 -10 2398.00 1173.13   5
   5   3  -9 2613.39 1293.24   5
   5   3  -8 159.085 572.694   5
   5   3  -7 454.858 617.773   5
   5   3  -6 942.269 777.466   5
   5   3  -5 279.660 537.706   5
   5   3  -4 6143.14 1505.36   8
   5   3  -4 5109.95 1281.73   6
   5   3  -4 6706.03 1585.01   5
   5   3  -3 9750.29 1735.05   8
   5   3  -3 9386.35 1737.37   6
   5   3  -3 9557.42 1818.30   5
   5   3  -2 10823.0 1857.28   8
   5   3  -2 11595.8 1946.42   6
   5   3  -2 10879.9 1984.69   5
   5   3  -1 5795.02 1284.24   8
   5   3  -1 7064.48 1499.87   6
   5   3  -1 8597.32 1899.69   5
   5   3   0 533.751 615.656   8
   5   3   0 2004.77 861.066   6
   5   3   1 440.002 482.933   8
   5   3   1-1701.94 775.656   6
   5   3   2 9174.07 1736.90   8
   5   3   2 6913.07 1422.24   6
   5   3   3 13577.9 2062.99   8
   5   3   3 14505.4 2105.43   6
   5   3   4 15569.8 2356.43   8
   5   3   4 16088.8 2182.75   6
   5   3   5 10324.6 1949.86   8
   5   3   5 9696.09 1734.57   6
   5   3   6 5285.38 1495.66   8
   5   3   6 4592.65 1287.46   6
   5   3   7 2110.17 1251.66   8
   5   3   7 309.497 464.931   6
   5   3   8 425.401 608.515   8
   5   3   8 792.648 787.772   6
   5   3   9 2609.05 1030.79   8
   5   3   9 2612.42 1121.19   6
   5   3  10 2327.35 1304.78   8
   5   3  10 3955.61 1305.43   6
   5   3  11 3854.04 1380.82   8
   5   3  11 5013.53 1538.51   6
   5   3  12 3768.91 1713.36   8
   5   3  12 1765.21 1144.84   6
   5   3  13 1201.76 902.458   8
   5   3  13-359.778 816.646   6
   5   3  14-268.016 830.498   8
   5   3  14 609.234 934.944   6
   5   3  15 719.332 1041.44   8
   5   3  15 590.769 844.322   6
   5   3  16 1642.50 1612.55   8
   5   3  16-168.195 671.529   6
   5   3  17 3187.00 1848.93   8
   5   3  17-581.073 1070.67   6
   5   3  18-232.611 1117.82   8
   5   3  18-1491.99 1076.57   6
   5   3  19-849.838 1317.45   6
   5   4 -17 1180.81 1219.85   5
   5   4 -16-911.870 903.330   5
   5   4 -15-118.837 587.323   5
   5   4 -14-155.993 834.456   5
   5   4 -13 172.388 644.814   5
   5   4 -12 1405.83 1157.49   5
   5   4 -11 22.0055 538.243   5
   5   4 -10-208.564 690.816   5
   5   4  -9 689.675 683.160   5
   5   4  -8 2589.71 1340.53   5
   5   4  -7 6390.54 1816.70   5
   5   4  -6 6779.03 1720.66   5
   5   4  -5 7317.66 1735.93   5
   5   4  -4 2878.44 1092.74   8
   5   4  -4 1781.38 1148.96   5
   5   4  -3 665.310 633.994   8
   5   4  -3-9.59944 440.270   6
   5   4  -2 2362.19 908.154   8
   5   4  -2 3265.52 1009.19   6
   5   4  -2 2881.97 1380.78   5
   5   4  -1 8616.79 1708.50   8
   5   4  -1 8887.78 1613.47   6
   5   4  -1 9167.75 1904.03   5
   5   4   0 16571.6 2364.19   8
   5   4   0 15792.2 2155.10   6
   5   4   0 14739.5 2382.97   5
   5   4   1 19756.2 2544.45   8
   5   4   1 20889.5 2414.81   6
   5   4   2 7837.86 1673.78   8
   5   4   2 9512.53 1686.63   6
   5   4   3 1028.96 786.031   8
   5   4   3-250.776 612.793   6
   5   4   4 2077.83 992.856   8
   5   4   4 121.479 413.018   6
   5   4   5 5135.21 1537.62   8
   5   4   5 4162.94 1160.24   6
   5   4   6 8195.76 1917.43   8
   5   4   6 8115.43 1574.76   6
   5   4   7 8597.63 1999.20   8
   5   4   7 8054.88 1584.99   6
   5   4   8 7689.22 1964.59   8
   5   4   8 5110.06 1368.09   6
   5   4   9 3279.79 1291.71   8
   5   4   9 4174.72 1215.99   6
   5   4  10 201.316 1022.85   8
   5   4  10 935.588 782.031   6
   5   4  11 1616.91 1303.61   8
   5   4  11 891.537 807.094   6
   5   4  12 576.093 786.050   8
   5   4  12 666.585 620.050   6
   5   4  13 6672.20 2017.90   8
   5   4  13 2867.53 1211.00   6
   5   4  14 6503.78 2034.58   8
   5   4  14 1764.95 1076.59   6
   5   4  15 296.580 881.018   8
   5   4  15 2244.62 1389.33   6
   5   4  16 1911.23 1424.88   8
   5   4  16-585.035 708.082   6
   5   4  17 1937.20 1453.50   8
   5   4  17-271.587 819.210   6
   5   4  18 15.0662 1308.31   8
   5   5 -15-26.4344 609.333   5
   5   5 -14 860.365 824.987   5
   5   5 -13 1152.45 1060.73   5
   5   5 -12 247.688 880.793   5
   5   5 -11 653.057 1030.00   5
   5   5 -10 2211.00 1504.02   5
   5   5  -9 839.990 753.724   5
   5   5  -8 596.915 607.462   5
   5   5  -7 367.271 846.209   5
   5   5  -6 390.614 896.515   5
   5   5  -5 5003.66 1450.67   5
   5   5  -4 3773.65 1249.64   5
   5   5  -3 6750.16 1767.10   8
   5   5  -3 4416.90 1418.83   5
   5   5  -2 3031.64 1388.45   8
   5   5  -2 6297.00 1382.43   6
   5   5  -2 6017.68 1592.71   5
   5   5  -1 2589.94 1046.86   8
   5   5  -1 2099.19 827.077   6
   5   5  -1 1895.00 1066.45   5
   5   5   0-148.694 711.554   8
   5   5   0 930.990 732.252   6
   5   5   0 1003.98 969.549   5
   5   5   1 881.087 903.584   8
   5   5   1 121.990 439.375   6
   5   5   2 3190.40 1172.25   8
   5   5   2 3759.01 997.682   6
   5   5   3 2505.41 1135.05   8
   5   5   3 2415.99 794.096   6
   5   5   4 8239.08 1718.40   8
   5   5   4 6225.57 1301.35   6
   5   5   5 10434.7 1997.47   8
   5   5   5 11546.2 1812.99   6
   5   5   6 5692.81 1635.54   8
   5   5   6 6595.92 1371.01   6
   5   5   7 1475.06 1090.82   8
   5   5   7 1796.33 748.556   6
   5   5   8 632.366 755.670   8
   5   5   8 716.198 656.453   6
   5   5   9 6890.56 1956.49   8
   5   5   9 4332.26 1246.77   6
   5   5  10 5776.48 1844.23   8
   5   5  10 7230.14 1578.37   6
   5   5  11 3839.98 1610.02   8
   5   5  11 3556.82 1089.11   6
   5   5  12 4707.65 1878.09   8
   5   5  13 1000.65 1143.81   8
   5   5  14 393.457 1301.02   8
   5   5  15-380.582 772.423   8
   5   5  16 706.500 975.608   8
   5   5  17 1597.90 1279.97   8
   5   6 -14 954.804 896.877   5
   5   6 -13 870.544 1261.72   5
   5   6 -12 1257.06 1169.44   5
   5   6 -11-1945.74 1133.53   5
   5   6 -10 2175.02 1391.56   5
   5   6  -9 2575.38 1365.35   5
   5   6  -8 3031.60 1411.24   5
   5   6  -7 3411.48 1265.83   5
   5   6  -6 3078.06 1416.28   5
   5   6  -5 797.068 993.122   5
   5   6  -4-390.110 625.512   5
   5   6  -3 1064.58 998.324   8
   5   6  -3-276.445 848.496   5
   5   6  -2 2197.73 1220.53   8
   5   6  -2 2254.52 1071.62   5
   5   6  -1 5108.20 1423.85   8
   5   6  -1 7078.81 1833.71   5
   5   6   0 10224.7 2149.96   8
   5   6   0 10863.9 1672.48   6
   5   6   0 10618.9 2161.06   5
   5   6   1 10666.1 2206.15   8
   5   6   2 2822.01 1189.75   8
   5   6   3 1712.69 951.627   8
   5   6   4 742.412 669.275   8
   5   6   5 3510.00 1420.97   8
   5   6   6 7762.78 2075.47   8
   5   6   7 5777.81 1852.82   8
   5   6   8 3598.43 1344.71   8
   5   6   9 1295.83 1515.00   8
   5   6  10 110.458 770.519   8
   5   6  11-574.966 727.289   8
   5   6  12-424.636 817.769   8
   5   6  13 2735.47 1575.63   8
   5   6  14 1069.95 1308.89   8
   5   6  15 1495.80 1339.51   8
   5   6  16 1165.81 1146.85   8
   5   6  17-728.102 1035.29   8
   5   7 -13 1059.17 926.946   5
   5   7 -12 1583.02 1098.76   5
   5   7 -11 685.367 1052.53   5
   5   7 -10 879.845 959.054   5
   5   7  -9 956.348 1361.10   5
   5   7  -8-35.4678 733.845   5
   5   7  -7 1636.03 1161.73   5
   5   7  -6 2343.76 1382.66   5
   5   7  -5 2418.09 1288.03   5
   5   7  -4 3314.22 1562.48   5
   5   7  -3 4044.90 1435.69   5
   5   7  -2 4378.83 1563.36   8
   5   7  -2 2169.59 1227.46   5
   5   7  -1 1398.87 772.773   8
   5   7  -1 1512.78 1138.45   5
   5   7   0-704.282 1019.84   8
   5   7   0 841.424 924.676   5
   5   7   1 1134.07 644.750   8
   5   7   1 2217.62 1131.65   5
   5   7   2 3557.87 1368.59   8
   5   7   3 7559.88 1965.88   8
   5   7   4 10134.2 2212.37   8
   5   7   5 3792.68 1454.54   8
   5   7   6 4282.19 1605.40   8
   5   7   7-198.910 961.286   8
   5   7   8 2492.43 1282.89   8
   5   7   9 3031.74 1700.70   8
   5   7  10 5610.55 1952.31   8
   5   7  11 3434.14 1478.00   8
   5   7  12 1200.44 1185.95   8
   5   7  13 1463.04 1582.31   8
   5   7  14 1030.74 885.282   8
   5   7  15-63.0831 944.578   8
   5   7  16 1818.67 1332.19   8
   5   8 -11 466.139 703.423   5
   5   8 -10 849.608 985.438   5
   5   8  -9 1487.01 1063.95   5
   5   8  -8 809.355 1147.24   5
   5   8  -7 3510.23 1294.42   5
   5   8  -6 918.527 804.077   5
   5   8  -5 711.779 621.438   5
   5   8  -4 1426.64 1141.88   5
   5   8  -3 454.906 958.623   5
   5   8  -2 3243.58 1283.97   8
   5   8  -2 2809.42 1377.17   5
   5   8  -1 4373.29 1831.01   8
   5   8  -1 3802.53 1585.72   5
   5   8   0 6021.56 1922.39   8
   5   8   0 3533.91 1461.43   5
   5   8   1 4733.77 1525.30   8
   5   8   1 4508.63 1681.60   5
   5   8   2 3665.49 1665.64   8
   5   8   3 3435.49 1552.72   8
   5   8   4 675.835 783.519   8
   5   8   5 1886.82 1164.89   8
   5   8   6 3087.64 1410.60   8
   5   8   7 5823.80 1672.31   8
   5   8   8 2140.35 1238.14   8
   5   8   9 1547.69 1108.48   8
   5   8  10 837.621 1173.15   8
   5   8  11 304.261 1005.01   8
   5   8  12 1645.79 1108.70   8
   5   8  13 3190.04 1539.95   8
   5   8  14 1900.57 1617.10   8
   5   9  -9 1431.84 1253.07   5
   5   9  -8 90.0272 1109.28   5
   5   9  -7 1019.15 1078.74   5
   5   9  -6 44.1982 789.566   5
   5   9  -5 1244.12 974.626   5
   5   9  -4 2309.17 1463.65   5
   5   9  -3 2079.95 1317.76   5
   5   9  -2 1.06560 772.472   5
   5   9  -1 1531.80 1443.46   8
   5   9  -1 849.314 861.906   5
   5   9   0-745.778 786.653   8
   5   9   0 2393.12 1583.62   5
   5   9   1 3051.90 1337.51   8
   5   9   2 2036.85 1515.80   8
   5   9   3 3039.19 1658.30   8
   5   9   4 2450.92 1418.09   8
   5   9   5 1265.98 1249.00   8
   5   9   6 1398.52 1271.91   8
   5   9   7 348.978 678.146   8
   5   9   8 4178.62 1708.16   8
   5   9   9 1648.57 1705.48   8
   5   9  10 1796.27 1238.37   8
   5   9  11-745.196 725.125   8
   5   9  12 1268.47 1186.18   8
   5   9  13 2348.56 1516.44   8
   5  10  -7 1.22866 679.946   5
   5  10  -6 849.929 997.213   5
   5  10  -5 2856.86 1383.91   5
   5  10  -4 665.854 923.785   5
   5  10  -3 129.373 624.130   5
   5  10  -2 2539.58 1366.28   5
   5  10  -1 1134.57 1017.07   5
   5  10   0 965.674 1014.07   8
   5  10   0 445.710 795.356   5
   5  10   1 2616.27 1584.77   8
   5  10   2 966.072 1237.19   8
   5  10   3 2704.84 1490.06   8
   5  10   4 2114.25 1431.36   8
   5  10   5 2569.51 1545.15   8
   5  10   6 4874.03 2000.32   8
   5  10   7 2605.09 1465.28   8
   5  10   8 2164.55 1726.13   8
   5  10   9 472.558 879.485   8
   5  10  10 62.6027 1294.35   8
   5  11  -4 996.466 1005.20   5
   5  11  -3-37.5807 643.086   5
   5  11  -2 1237.82 1126.10   5
   5  11  -1 895.478 1034.44   5
   5  11   2-676.801 1063.21   8
   5  11   3 1428.17 1366.27   8
   5  11   4 1595.84 1194.30   8
   5  11   5 3255.66 1973.48   8
   6  -8  -6 1293.11 1305.48   6
   6  -8  -5 467.038 1143.29   6
   6  -8  -4 401.754 769.486   6
   6  -8  -3 203.990 692.231   6
   6  -8  -2-144.333 576.258   7
   6  -8  -2 856.928 956.840   6
   6  -8  -1 91.4655 620.850   7
   6  -8  -1-615.824 1156.50   6
   6  -8   0-1912.14 1174.35   6
   6  -8   1 171.907 987.330   6
   6  -7  -8 75.1702 748.209   6
   6  -7  -7-513.539 692.182   7
   6  -7  -7 179.552 612.218   6
   6  -7  -6 461.592 472.341   7
   6  -7  -6 2146.08 1467.98   6
   6  -7  -5 1618.16 1096.98   7
   6  -7  -5-139.491 595.808   6
   6  -7  -4 886.553 678.720   7
   6  -7  -4-491.065 741.479   6
   6  -7  -3 361.862 733.661   7
   6  -7  -3-100.856 720.170   6
   6  -7  -2 976.905 888.815   7
   6  -7  -2 207.658 1104.68   6
   6  -7  -1-501.774 622.218   7
   6  -7  -1-530.888 860.207   6
   6  -7   0 1615.84 1548.76   6
   6  -7   1 2346.59 1288.86   6
   6  -7   2 1467.43 1299.22   6
   6  -7   3 779.574 980.189   6
   6  -7   4 309.173 673.131   6
   6  -7   5 177.248 606.137   6
   6  -6 -10 930.196 645.734   7
   6  -6  -9 1176.69 1012.57   7
   6  -6  -8 438.833 521.109   7
   6  -6  -8-568.791 745.734   6
   6  -6  -7-200.099 508.338   7
   6  -6  -7 2224.35 1455.24   6
   6  -6  -6 865.748 922.635   7
   6  -6  -6 2690.56 1233.89   6
   6  -6  -5 911.206 814.531   7
   6  -6  -5 334.262 802.527   6
   6  -6  -4 375.224 735.038   7
   6  -6  -4 89.3385 653.826   6
   6  -6  -3 877.791 735.226   7
   6  -6  -3-952.027 932.621   6
   6  -6  -2-1069.78 857.658   7
   6  -6  -2 566.164 1021.32   6
   6  -6  -1 489.456 638.014   7
   6  -6  -1 889.315 1101.37   6
   6  -6   0-931.417 801.639   7
   6  -6   0-307.159 706.664   6
   6  -6   1 597.423 925.409   6
   6  -6   2-131.908 627.058   6
   6  -6   3 1060.16 1001.04   6
   6  -6   4 1020.56 891.286   6
   6  -6   5 358.179 917.207   6
   6  -6   6 126.028 826.283   6
   6  -6   7 1426.75 1300.26   6
   6  -5 -12 557.882 936.238   7
   6  -5 -11 1811.63 1233.57   7
   6  -5 -10 453.979 648.025   7
   6  -5  -9 791.414 636.036   7
   6  -5  -9 487.938 1143.06   6
   6  -5  -8-200.469 593.237   7
   6  -5  -8 753.243 762.510   6
   6  -5  -7 337.097 613.036   7
   6  -5  -7 699.537 1193.59   6
   6  -5  -6 336.742 476.073   7
   6  -5  -6 473.680 666.462   6
   6  -5  -5 1584.43 1040.34   7
   6  -5  -5 2387.45 1372.42   6
   6  -5  -4 13.5500 493.003   7
   6  -5  -4 16.3616 590.960   6
   6  -5  -3 168.375 460.164   7
   6  -5  -3 1022.94 725.091   6
   6  -5  -2 429.122 524.892   7
   6  -5  -2 2113.97 1184.20   6
   6  -5  -1 1330.02 781.789   7
   6  -5  -1 4992.57 1775.34   6
   6  -5   0 1034.74 655.274   7
   6  -5   0 1942.31 1268.71   6
   6  -5   1 2586.26 1574.94   6
   6  -5   2 1826.07 1214.74   6
   6  -5   3 1794.44 1377.88   6
   6  -5   4 1666.10 1407.29   6
   6  -5   5 2242.36 1577.53   6
   6  -5   6 1151.88 1291.67   6
   6  -5   7 776.936 729.781   6
   6  -5   8-90.9251 782.373   6
   6  -5   9 1224.66 1155.46   6
   6  -4 -13 517.249 926.318   7
   6  -4 -12 288.136 566.862   7
   6  -4 -11 1645.13 955.184   7
   6  -4 -10 722.106 810.861   7
   6  -4  -9 1100.70 838.794   7
   6  -4  -9 1581.13 1250.65   6
   6  -4  -8-228.962 502.562   7
   6  -4  -8-377.819 757.502   6
   6  -4  -7 116.063 505.499   7
   6  -4  -7 522.985 802.536   6
   6  -4  -6 360.365 381.957   7
   6  -4  -6 589.571 948.511   6
   6  -4  -5 2572.33 1095.95   7
   6  -4  -5 2495.71 1477.63   6
   6  -4  -4 1027.58 757.568   7
   6  -4  -4 1487.77 1048.82   6
   6  -4  -3-44.4096 523.299   7
   6  -4  -3 1561.22 1285.35   6
   6  -4  -2 518.536 713.721   7
   6  -4  -2 139.000 627.643   6
   6  -4  -1 241.473 491.219   7
   6  -4  -1 1189.13 1358.20   6
   6  -4   0 235.050 321.249   7
   6  -4   0 1253.28 822.138   6
   6  -4   1 628.323 877.452   6
   6  -4   2 1484.60 1070.15   6
   6  -4   3 838.316 919.195   6
   6  -4   4 3219.27 1608.37   6
   6  -4   5 1177.99 1071.17   6
   6  -4   6 1012.58 1313.28   6
   6  -4   7-226.889 737.512   6
   6  -4   8 160.426 1014.46   6
   6  -4   9 1571.01 1291.57   6
   6  -4  10-725.232 919.719   6
   6  -4  11 1245.99 1453.21   6
   6  -3 -14 1031.30 1122.81   7
   6  -3 -13-373.750 508.981   7
   6  -3 -12 322.670 546.441   7
   6  -3 -11-1062.75 905.087   7
   6  -3 -10 652.613 702.205   7
   6  -3  -9-428.230 667.526   7
   6  -3  -9 1194.98 1123.38   6
   6  -3  -8 862.193 748.874   7
   6  -3  -8 1013.89 1193.24   6
   6  -3  -7 1338.99 940.349   7
   6  -3  -7 3131.88 1736.64   6
   6  -3  -6 1353.81 860.056   7
   6  -3  -6 2598.84 1392.98   6
   6  -3  -5 380.080 502.412   7
   6  -3  -5 1491.87 1148.31   6
   6  -3  -4-70.6860 395.728   7
   6  -3  -4 765.141 825.655   6
   6  -3  -3 36.2678 485.079   7
   6  -3  -3 89.8555 557.576   6
   6  -3  -2 851.525 467.887   7
   6  -3  -2 880.970 967.215   6
   6  -3  -1 769.897 596.532   7
   6  -3  -1 1862.35 1326.54   6
   6  -3   0 2021.07 855.218   7
   6  -3   0 2924.74 1279.91   6
   6  -3   1 3148.28 1526.27   6
   6  -3   2 2647.32 1438.48   6
   6  -3   3 1023.07 1056.20   6
   6  -3   4 900.558 587.985   6
   6  -3   5 994.569 931.256   6
   6  -3   6 2885.87 1534.41   6
   6  -3   7 3628.23 1468.78   6
   6  -3   8-221.780 856.343   6
   6  -3   9-2.56908 1119.57   6
   6  -3  10-665.861 827.671   6
   6  -3  11-477.843 1032.55   6
   6  -3  12 1385.29 1559.26   6
   6  -2 -15 101.990 408.519   7
   6  -2 -14-178.219 721.530   7
   6  -2 -13 297.780 430.207   7
   6  -2 -12 967.863 823.357   7
   6  -2 -11 343.874 616.503   7
   6  -2 -10 756.412 846.392   7
   6  -2  -9 465.272 771.388   7
   6  -2  -8 989.927 870.907   7
   6  -2  -8-90.4829 953.983   6
   6  -2  -7 372.794 581.098   7
   6  -2  -7 2877.08 1385.14   6
   6  -2  -6 2735.65 1093.96   7
   6  -2  -6 1714.44 1027.68   6
   6  -2  -5 1832.88 829.371   7
   6  -2  -5 1455.45 1042.90   6
   6  -2  -4 1565.74 845.719   7
   6  -2  -4 926.522 1147.60   6
   6  -2  -3 3132.02 1019.36   7
   6  -2  -3 2019.66 1157.74   6
   6  -2  -2 969.215 561.458   7
   6  -2  -2 1565.24 707.747   6
   6  -2  -1-9.10711 351.710   7
   6  -2  -1-293.527 560.835   6
   6  -2   0 1407.56 720.350   7
   6  -2   0 1116.04 1134.15   6
   6  -2   1 7417.77 2124.54   6
   6  -2   2 3331.89 1392.66   6
   6  -2   3 3839.52 1643.78   6
   6  -2   4-701.004 606.343   6
   6  -2   5-547.050 730.839   6
   6  -2   6 1101.36 1060.03   6
   6  -2   7 267.585 851.190   6
   6  -2   8 623.931 1006.33   6
   6  -2   9 2844.42 1428.70   6
   6  -2  10-118.673 816.286   6
   6  -2  11 1880.62 1504.63   6
   6  -2  12 706.343 1324.09   6
   6  -2  13 36.3956 1295.25   6
   6  -1 -15 678.652 989.008   7
   6  -1 -14-1349.15 922.730   7
   6  -1 -13-422.950 833.216   7
   6  -1 -12 331.325 476.493   7
   6  -1 -11-733.108 785.585   7
   6  -1 -10 285.424 538.164   7
   6  -1  -9-298.823 528.692   7
   6  -1  -9-162.242 420.548   5
   6  -1  -8 2695.40 1024.25   7
   6  -1  -8 4544.46 1695.46   6
   6  -1  -7 2184.18 954.339   7
   6  -1  -7 1988.72 1304.55   6
   6  -1  -6 716.537 516.714   7
   6  -1  -6 874.340 999.596   6
   6  -1  -5-69.5166 557.678   7
   6  -1  -5-333.988 726.011   6
   6  -1  -4-140.579 443.646   7
   6  -1  -4-731.852 720.761   6
   6  -1  -3 1453.56 732.978   7
   6  -1  -3 1158.68 992.215   6
   6  -1  -2 1642.68 742.048   7
   6  -1  -2 2326.34 1238.67   6
   6  -1  -1 2285.69 809.859   7
   6  -1  -1 1996.68 1068.30   6
   6  -1   0 3117.30 860.346   7
   6  -1   0 4532.86 1535.34   6
   6  -1   1 3426.03 1313.48   6
   6  -1   2 2444.32 1315.14   6
   6  -1   3-310.048 620.009   6
   6  -1   4 1441.19 1024.31   6
   6  -1   5 4480.54 1664.28   6
   6  -1   6 4486.82 1339.72   8
   6  -1   6 6027.67 1858.96   6
   6  -1   7 2890.80 1130.37   8
   6  -1   7 4199.81 1825.01   6
   6  -1   8 1353.42 906.154   8
   6  -1   8 2006.70 1319.54   6
   6  -1   9-426.435 570.556   8
   6  -1   9-362.160 742.036   6
   6  -1  10 393.661 910.334   8
   6  -1  10-368.913 702.568   6
   6  -1  11 1481.60 1168.17   8
   6  -1  11-684.131 706.284   6
   6  -1  12 2436.35 1583.36   6
   6  -1  13 1380.27 1432.82   6
   6  -1  14 1698.25 1243.47   6
   6   0 -15-962.995 1001.15   7
   6   0 -14 1703.29 1183.52   7
   6   0 -13 1086.39 990.734   7
   6   0 -12-190.830 561.370   7
   6   0 -12 639.259 679.338   5
   6   0 -11 735.848 730.589   7
   6   0 -11 359.380 518.026   5
   6   0 -10 1309.56 748.167   7
   6   0 -10 1400.57 858.318   5
   6   0  -9-721.747 655.846   7
   6   0  -9 70.6029 520.240   5
   6   0  -8-290.482 570.495   7
   6   0  -8 113.754 579.733   5
   6   0  -7 1047.96 753.830   7
   6   0  -7 1520.78 1072.13   6
   6   0  -7 1304.95 1012.54   5
   6   0  -6 89.9000 458.281   7
   6   0  -6 2865.70 1378.66   6
   6   0  -5 2438.99 993.560   7
   6   0  -5 2112.59 1390.18   6
   6   0  -4 2650.12 985.775   7
   6   0  -4 2248.73 1263.40   6
   6   0  -3 3255.47 988.528   7
   6   0  -3 3781.93 1474.02   6
   6   0  -2 720.324 431.821   7
   6   0  -2 769.065 946.838   6
   6   0  -1-420.044 509.446   7
   6   0  -1 695.162 864.768   6
   6   0   0 819.719 793.064   6
   6   0   1 5503.17 1654.72   6
   6   0   2 5415.54 1724.06   6
   6   0   3 4206.79 1129.42   8
   6   0   3 5351.49 1722.75   6
   6   0   4 1793.74 770.353   8
   6   0   4 2672.01 1237.49   6
   6   0   5 578.610 710.914   8
   6   0   5 1639.40 1059.67   6
   6   0   6-88.8624 580.513   8
   6   0   6 134.294 807.300   6
   6   0   7 1131.77 903.435   8
   6   0   7 1688.77 1021.92   6
   6   0   8 2832.06 1213.99   8
   6   0   8 751.438 1080.20   6
   6   0   9 3618.76 1338.89   8
   6   0   9 2069.89 1215.89   6
   6   0  10 1237.41 1009.18   8
   6   0  10 754.879 1143.57   6
   6   0  11 908.873 866.417   8
   6   0  11-451.963 691.647   6
   6   0  12 1070.71 1332.14   8
   6   0  12 447.802 1100.33   6
   6   0  13 1616.27 1108.22   8
   6   0  13 386.638 908.237   6
   6   0  14 261.799 687.932   8
   6   0  14 269.952 977.142   6
   6   0  15 1769.19 1239.85   8
   6   0  15 121.677 701.643   6
   6   1 -15-81.4954 633.056   5
   6   1 -14 1045.04 1018.50   7
   6   1 -14-35.2340 477.113   5
   6   1 -13-115.649 641.871   7
   6   1 -13-67.5152 709.406   5
   6   1 -12 165.694 735.146   7
   6   1 -12 913.169 813.460   5
   6   1 -11-65.2854 670.124   7
   6   1 -11-567.197 892.525   5
   6   1 -10 988.817 807.193   7
   6   1 -10 156.880 529.760   5
   6   1  -9 2161.00 962.411   7
   6   1  -9 1521.07 901.016   5
   6   1  -8 2624.16 1069.98   7
   6   1  -8 864.685 736.455   5
   6   1  -7 2892.01 995.156   7
   6   1  -7 1020.25 750.189   6
   6   1  -7 2277.91 1192.08   5
   6   1  -6 1449.08 857.211   7
   6   1  -6 3292.54 1281.94   6
   6   1  -6 1587.84 884.616   5
   6   1  -5 296.144 528.465   7
   6   1  -5 188.445 493.014   6
   6   1  -5-270.830 683.969   5
   6   1  -4 673.452 602.837   7
   6   1  -4 204.569 744.650   6
   6   1  -3 2163.18 876.889   7
   6   1  -3 4417.87 1595.51   6
   6   1  -2 3684.89 1032.98   7
   6   1  -2 5130.65 1595.27   6
   6   1  -1 3837.44 1085.58   8
   6   1  -1 4445.79 1029.27   7
   6   1  -1 5891.25 1633.20   6
   6   1   0 4684.24 1156.11   8
   6   1   0 3983.83 1283.48   6
   6   1   1 2158.37 951.383   8
   6   1   1 1360.78 1040.29   6
   6   1   2 417.992 485.504   8
   6   1   2-623.356 791.471   6
   6   1   3 807.794 557.407   8
   6   1   3 490.483 569.845   6
   6   1   4 2973.75 1128.66   8
   6   1   4 3176.11 1224.36   6
   6   1   5 4088.05 1295.33   8
   6   1   5 4338.90 1500.05   6
   6   1   6 4979.40 1531.48   8
   6   1   6 2180.88 1102.33   6
   6   1   7 3119.44 1290.92   8
   6   1   7 3377.21 1251.23   6
   6   1   8 2516.77 1236.41   8
   6   1   8 1418.02 1129.73   6
   6   1   9 170.414 626.076   8
   6   1   9-389.517 705.993   6
   6   1  10-610.927 684.899   8
   6   1  10 559.595 939.728   6
   6   1  11 1430.63 1124.38   8
   6   1  11-448.801 859.680   6
   6   1  12 1840.94 1234.89   8
   6   1  12 1346.45 1125.06   6
   6   1  13 1961.53 1406.71   8
   6   1  13-1068.26 968.537   6
   6   1  14 1084.43 1001.02   8
   6   1  14 1073.36 1133.81   6
   6   1  15-54.8409 1122.92   8
   6   1  15-601.542 1214.92   6
   6   1  16-677.160 918.708   8
   6   1  16-312.944 759.539   6
   6   2 -16-199.199 702.141   5
   6   2 -15 366.537 897.995   5
   6   2 -14 691.250 762.607   5
   6   2 -13 536.160 921.717   5
   6   2 -12 700.573 933.284   5
   6   2 -11 2367.20 1349.58   5
   6   2 -10 366.064 666.545   5
   6   2  -9 583.566 665.534   5
   6   2  -8-1100.98 921.188   5
   6   2  -7 2601.19 1232.15   5
   6   2  -6 1650.58 991.787   6
   6   2  -6 1082.48 914.242   5
   6   2  -5 2488.71 1100.38   6
   6   2  -5 2556.97 1134.44   5
   6   2  -4 4599.90 1540.21   6
   6   2  -4 2404.90 1206.36   5
   6   2  -3 2187.42 853.031   8
   6   2  -3 1942.18 989.526   6
   6   2  -2 1067.87 752.882   8
   6   2  -2 551.761 652.034   6
   6   2  -1-626.249 402.748   8
   6   2  -1 320.653 556.293   6
   6   2   0 2598.39 1015.00   8
   6   2   0 1559.58 1054.53   6
   6   2   1 6878.95 1528.70   8
   6   2   1 3965.53 1338.55   6
   6   2   2 7827.23 1586.07   8
   6   2   2 6979.56 1678.24   6
   6   2   3 6305.53 1528.86   8
   6   2   3 6587.79 1787.22   6
   6   2   4 2522.48 1091.94   8
   6   2   4 2799.21 1206.54   6
   6   2   5 1151.80 1031.45   8
   6   2   5 202.049 477.383   6
   6   2   6-332.646 741.990   8
   6   2   6-657.635 753.514   6
   6   2   7 2273.86 1211.54   8
   6   2   7 2286.76 1262.44   6
   6   2   8 2798.27 1187.70   8
   6   2   8 2104.98 1069.00   6
   6   2   9 1891.54 1174.59   8
   6   2   9 3816.97 1398.32   6
   6   2  10 1322.53 1051.92   8
   6   2  10 1209.68 880.315   6
   6   2  11 212.786 720.319   8
   6   2  11 1084.57 1037.44   6
   6   2  12-839.809 961.537   8
   6   2  12-329.583 659.115   6
   6   2  13 1283.89 1184.21   8
   6   2  13-556.799 1053.01   6
   6   2  14-526.539 952.746   8
   6   2  14 1277.88 1196.91   6
   6   2  15 3464.72 1899.36   8
   6   2  15 815.689 1097.78   6
   6   2  16 316.640 1051.87   8
   6   2  16 71.2474 596.828   6
   6   3 -15 384.839 785.839   5
   6   3 -14 194.685 684.687   5
   6   3 -13 75.3460 654.309   5
   6   3 -12-592.571 672.040   5
   6   3 -11 2488.56 1290.43   5
   6   3 -10 1542.09 918.586   5
   6   3  -9 2806.55 1351.67   5
   6   3  -8 961.480 871.949   5
   6   3  -7 2149.88 1085.31   5
   6   3  -6 552.382 898.081   5
   6   3  -5-1340.27 1023.83   6
   6   3  -5 576.260 910.668   5
   6   3  -4 1256.05 924.938   6
   6   3  -4 63.5483 609.580   5
   6   3  -3 3516.51 1196.84   8
   6   3  -3 3417.13 1246.33   6
   6   3  -3 3595.89 1448.22   5
   6   3  -2 5111.46 1383.75   8
   6   3  -2 4519.40 1386.11   6
   6   3  -1 4134.77 1311.53   8
   6   3  -1 4309.77 1327.98   6
   6   3   0 1292.16 747.716   8
   6   3   0 2816.98 1156.90   6
   6   3   1 639.350 497.522   8
   6   3   1 1609.03 917.045   6
   6   3   2-20.2912 706.607   8
   6   3   2 232.040 709.147   6
   6   3   3 687.745 727.932   8
   6   3   3-16.0269 453.335   6
   6   3   4 2048.66 1041.91   8
   6   3   4 2252.95 1152.56   6
   6   3   5 3864.17 1380.18   8
   6   3   5 2930.80 1195.66   6
   6   3   6 2426.10 1204.57   8
   6   3   6 2338.46 1060.65   6
   6   3   7 4518.69 1408.57   8
   6   3   7 4751.53 1595.38   6
   6   3   8 1214.78 882.908   8
   6   3   8 966.799 1022.81   6
   6   3   9-670.510 556.206   8
   6   3   9-247.884 827.424   6
   6   3  10-717.968 670.473   8
   6   3  10 791.409 886.242   6
   6   3  11 2292.53 1317.88   8
   6   3  11 2536.11 1247.44   6
   6   3  12 1324.61 876.804   8
   6   3  12 2190.51 1322.18   6
   6   3  13 227.840 1051.97   8
   6   3  13 1944.94 1182.67   6
   6   3  14 1548.58 1367.60   8
   6   3  14 721.990 992.788   6
   6   3  15 784.430 1252.87   8
   6   3  15 223.158 718.530   6
   6   3  16 578.995 1093.26   8
   6   3  16 1386.15 1206.15   6
   6   3  17-1009.44 1197.84   6
   6   4 -14-516.625 737.744   5
   6   4 -13-1111.89 1113.69   5
   6   4 -12 994.449 954.627   5
   6   4 -11 1129.70 956.888   5
   6   4 -10 401.336 857.297   5
   6   4  -9 534.670 898.748   5
   6   4  -8-1397.95 945.828   5
   6   4  -7 419.835 804.200   5
   6   4  -6 733.507 1054.58   5
   6   4  -5 2529.13 1180.77   5
   6   4  -4 3293.82 1515.94   5
   6   4  -3 1791.20 1050.93   8
   6   4  -3 1428.33 901.199   6
   6   4  -3 2076.81 1284.54   5
   6   4  -2-778.853 625.346   8
   6   4  -2 473.464 597.782   6
   6   4  -2 1229.93 1078.80   5
   6   4  -1-343.115 546.688   8
   6   4  -1-136.836 691.051   6
   6   4   0 1321.29 888.151   8
   6   4   0 2382.49 1029.73   6
   6   4   1 5989.79 1632.94   8
   6   4   1 2263.30 1128.06   6
   6   4   2 6973.89 1689.86   8
   6   4   2 5786.18 1503.81   6
   6   4   3 5006.18 1538.14   8
   6   4   3 6179.34 1596.51   6
   6   4   4 4316.44 1491.31   8
   6   4   4 2065.38 990.507   6
   6   4   5 1380.97 914.018   8
   6   4   5-14.1765 545.205   6
   6   4   6 1170.70 1063.13   8
   6   4   6 675.917 767.538   6
   6   4   7 1749.25 1134.28   8
   6   4   7 418.788 634.074   6
   6   4   8 4406.65 1491.36   8
   6   4   8 5200.08 1628.03   6
   6   4   9 4014.33 1528.62   8
   6   4   9 2282.48 1020.27   6
   6   4  10 1772.70 916.930   8
   6   4  10 2432.64 1168.82   6
   6   4  11 1359.51 1268.89   8
   6   4  11 607.273 708.276   6
   6   4  12 1003.06 1213.53   8
   6   4  12 24.3576 746.465   6
   6   4  13 2124.37 1457.16   8
   6   4  13 1187.17 878.939   6
   6   4  14 1710.58 1282.74   8
   6   4  14 551.315 925.512   6
   6   4  15 1144.00 1503.97   8
   6   5 -13 399.485 813.180   5
   6   5 -12 597.463 662.227   5
   6   5 -11 1875.45 1233.68   5
   6   5 -10 2036.46 1295.13   5
   6   5  -9 1766.28 1240.43   5
   6   5  -8 5024.67 1991.21   5
   6   5  -7 1829.39 1170.55   5
   6   5  -6 323.821 635.586   5
   6   5  -5 1446.19 1200.24   5
   6   5  -4 965.384 943.218   5
   6   5  -3 1209.43 938.850   8
   6   5  -3 4071.74 1678.04   5
   6   5  -2 3525.26 1376.43   8
   6   5  -2 4520.26 1331.11   6
   6   5  -2 4696.06 1797.88   5
   6   5  -1 2904.23 1307.73   8
   6   5  -1 3519.57 1236.52   6
   6   5   0 3192.65 1397.35   8
   6   5   0 1992.50 955.229   6
   6   5   1 779.515 798.012   8
   6   5   1 1259.17 795.288   6
   6   5   2 483.643 546.794   8
   6   5   2-226.682 391.248   6
   6   5   3 2584.26 1233.21   8
   6   5   3 1036.78 590.538   6
   6   5   4 4311.36 1627.63   8
   6   5   4 2934.82 1082.32   6
   6   5   5 5627.16 1695.25   8
   6   5   5 3385.21 1217.06   6
   6   5   6 3000.24 1458.41   8
   6   5   6 2226.38 929.639   6
   6   5   7 2091.47 982.682   8
   6   5   7 1550.64 912.649   6
   6   5   8-73.2264 585.827   8
   6   5   9-2347.67 1101.01   8
   6   5  10-778.625 665.806   8
   6   5  11 384.306 1027.58   8
   6   5  12 1335.81 1251.79   8
   6   5  13 1258.25 1224.87   8
   6   5  14 1005.70 1265.04   8
   6   5  15 4041.34 2003.45   8
   6   6 -11 1307.74 1076.00   5
   6   6 -10 1769.07 1248.10   5
   6   6  -9 1217.83 1150.56   5
   6   6  -8-6.87689 650.712   5
   6   6  -7 1167.65 1170.69   5
   6   6  -6 970.178 865.624   5
   6   6  -5 1340.37 1108.59   5
   6   6  -4 1700.44 1198.84   5
   6   6  -3 2555.96 1105.01   8
   6   6  -3 2743.29 1287.46   5
   6   6  -2 597.470 925.830   8
   6   6  -2 1053.43 1097.94   5
   6   6  -1-655.155 1028.87   8
   6   6  -1 1794.46 1183.13   5
   6   6   0 4381.39 1502.35   8
   6   6   1 4131.00 1499.28   8
   6   6   2 1269.77 749.021   8
   6   6   3 2865.72 1444.34   8
   6   6   4 1576.72 1196.97   8
   6   6   5 1868.48 1140.73   8
   6   6   6 473.127 906.785   8
   6   6   7 147.253 683.931   8
   6   6   8 2905.48 1470.14   8
   6   6   9 5093.26 1845.27   8
   6   6  10 1487.52 1435.86   8
   6   6  11 2393.14 1346.80   8
   6   6  12 933.195 1053.44   8
   6   6  13 1391.33 1200.13   8
   6   6  14 1098.00 1493.68   8
   6   7 -10 2714.59 1640.62   5
   6   7  -9 316.277 761.919   5
   6   7  -8 67.9981 773.888   5
   6   7  -7 897.177 811.806   5
   6   7  -6 907.005 748.659   5
   6   7  -5 1472.39 1021.42   5
   6   7  -4 2336.16 1410.23   5
   6   7  -3 737.263 856.094   5
   6   7  -2 1633.38 1170.37   8
   6   7  -2 1289.17 1007.99   5
   6   7  -1 2387.78 1121.94   8
   6   7  -1 4108.74 1861.78   5
   6   7   0 2550.42 1501.07   8
   6   7   1 1143.76 1158.43   8
   6   7   2 1787.76 976.830   8
   6   7   3 115.929 953.531   8
   6   7   4 2108.54 1335.40   8
   6   7   5 1898.76 1092.12   8
   6   7   6 2772.50 1527.72   8
   6   7   7 1405.08 1049.63   8
   6   7   8 2637.47 1486.07   8
   6   7   9 373.192 1044.12   8
   6   7  10 1566.28 1235.02   8
   6   7  11 641.851 900.643   8
   6   7  12 802.222 1147.07   8
   6   7  13 1678.41 1636.91   8
   6   8  -8 30.7836 701.263   5
   6   8  -7-444.898 648.426   5
   6   8  -6 64.2606 650.324   5
   6   8  -5 905.596 847.201   5
   6   8  -4 1997.99 1735.25   5
   6   8  -3 1849.98 1166.78   5
   6   8  -2-245.145 674.522   5
   6   8  -1 996.864 1045.50   8
   6   8  -1 466.425 1041.83   5
   6   8   0 2582.76 1507.16   8
   6   8   1 2427.81 1300.26   8
   6   8   2 2375.11 1373.11   8
   6   8   3 3961.79 1804.03   8
   6   8   4-611.727 975.339   8
   6   8   5-537.886 960.637   8
   6   8   6-578.136 914.570   8
   6   8   7 2276.45 1344.24   8
   6   8   8 3999.09 1843.23   8
   6   8   9 293.002 1122.50   8
   6   8  10 1236.11 938.110   8
   6   8  11 73.2787 883.233   8
   6   9  -5-1396.21 1038.32   5
   6   9  -4 486.424 1063.62   5
   6   9  -3 496.862 1036.90   5
   6   9  -2 1370.02 1096.74   5
   6   9  -1 126.948 917.238   8
   6   9  -1 2798.56 1487.12   5
   6   9   0 2233.29 1444.21   8
   6   9   1-696.871 722.042   8
   6   9   2 2428.81 1629.42   8
   6   9   3 430.731 925.352   8
   6   9   4 3468.48 1719.13   8
   6   9   5 1254.71 1051.40   8
   6   9   6-335.534 982.926   8
   6   9   7 1940.41 1254.65   8
   6   9   8 1554.02 1112.27   8
   7  -5  -7-275.503 733.227   7
   7  -5  -6 209.203 791.815   7
   7  -5  -5 937.891 918.611   7
   7  -5  -5-50.7387 708.030   6
   7  -5  -4 2301.39 1396.87   6
   7  -5  -3 1364.77 1309.05   6
   7  -5  -2-316.502 751.361   6
   7  -5  -1-1532.76 1177.99   6
   7  -5   0-386.778 674.600   6
   7  -5   1 995.034 853.649   6
   7  -4  -9 769.203 700.768   7
   7  -4  -8 629.005 658.012   7
   7  -4  -7-350.345 460.918   7
   7  -4  -7 546.397 947.089   6
   7  -4  -6-17.2379 508.993   7
   7  -4  -6-165.322 891.181   6
   7  -4  -5-704.481 708.632   7
   7  -4  -5 492.899 838.242   6
   7  -4  -4 863.049 1465.87   6
   7  -4  -3 1512.52 1051.44   6
   7  -4  -2-308.422 670.646   6
   7  -4  -1-201.995 999.191   6
   7  -4   0 356.003 870.858   6
   7  -4   1 339.057 1013.61   6
   7  -4   2 1539.50 1310.20   6
   7  -4   3 283.677 1078.27   6
   7  -4   4 228.723 742.594   6
   7  -4   5 227.151 679.987   6
   7  -3 -10 74.3743 496.991   7
   7  -3  -9 450.020 589.360   7
   7  -3  -8-335.514 469.609   7
   7  -3  -8-384.494 840.137   6
   7  -3  -7-728.897 605.515   7
   7  -3  -7 652.901 650.680   6
   7  -3  -6 407.163 580.842   7
   7  -3  -6-300.865 886.224   6
   7  -3  -5 432.075 603.565   7
   7  -3  -5 477.118 823.208   6
   7  -3  -4 1768.40 1465.40   6
   7  -3  -3 1475.25 1500.88   6
   7  -3  -2 658.257 860.098   6
   7  -3  -1-411.801 939.455   6
   7  -3   0 679.962 881.063   6
   7  -3   1 2154.26 1477.44   6
   7  -3   2 1691.99 1120.73   6
   7  -3   3 997.113 1193.60   6
   7  -3   4 391.253 952.864   6
   7  -3   5 435.373 1022.13   6
   7  -3   6 418.158 957.570   6
   7  -3   7 2947.51 1758.84   6
   7  -2 -11-286.440 685.932   7
   7  -2 -10 441.337 637.912   7
   7  -2  -9 744.394 698.314   7
   7  -2  -8-172.719 510.249   7
   7  -2  -8 827.944 1119.61   6
   7  -2  -7-1214.40 853.979   7
   7  -2  -7 1947.65 1485.14   6
   7  -2  -6-317.536 594.122   7
   7  -2  -6 1906.88 1312.30   6
   7  -2  -5 569.341 499.682   7
   7  -2  -5 1737.58 1437.89   6
   7  -2  -4 850.745 953.993   6
   7  -2  -3 2125.76 1233.28   6
   7  -2  -2 2561.19 1362.56   6
   7  -2  -1 1752.71 1248.96   6
   7  -2   0 830.785 927.886   6
   7  -2   1 69.1854 843.811   6
   7  -2   2 1323.18 1247.12   6
   7  -2   3 1855.13 1287.68   6
   7  -2   4 1574.15 1143.78   6
   7  -2   5 598.639 843.427   6
   7  -2   6 783.312 1062.45   6
   7  -2   7 12.2949 793.173   6
   7  -2   8-225.805 1002.49   6
   7  -2   9-1551.16 1310.49   6
   7  -1 -12-170.429 623.461   7
   7  -1 -11 766.482 784.521   7
   7  -1 -10 2188.36 1209.34   7
   7  -1  -9 339.849 557.476   7
   7  -1  -8-205.391 506.489   7
   7  -1  -8-1528.44 1407.34   6
   7  -1  -7 578.361 574.617   7
   7  -1  -7 971.850 1224.37   6
   7  -1  -6 377.722 700.736   7
   7  -1  -6 1109.93 1589.69   6
   7  -1  -5 760.297 568.432   7
   7  -1  -5 512.175 959.437   6
   7  -1  -4 124.977 743.076   6
   7  -1  -3 1064.92 1192.44   6
   7  -1  -2 80.2366 797.321   6
   7  -1  -1 521.411 827.609   6
   7  -1   0 198.407 824.143   6
   7  -1   1 2565.97 1351.50   6
   7  -1   2 2231.11 1378.90   6
   7  -1   3 2624.30 1763.69   6
   7  -1   4 866.270 974.948   6
   7  -1   5 1599.49 1340.95   6
   7  -1   6 1635.90 1272.08   6
   7  -1   7 287.881 634.140   6
   7  -1   8-317.740 1035.99   6
   7  -1   9 1121.39 1337.43   6
   7  -1  10 251.907 972.426   6
   7   0 -12 910.366 799.123   7
   7   0 -11-752.974 934.285   7
   7   0 -10 2192.26 1087.33   7
   7   0  -9-815.097 671.963   7
   7   0  -8-59.7192 675.217   7
   7   0  -7 365.364 641.035   7
   7   0  -7 1887.69 1352.29   6
   7   0  -6 572.028 852.481   7
   7   0  -6 2044.30 1474.12   6
   7   0  -5 206.410 529.904   7
   7   0  -5 968.834 889.372   6
   7   0  -4 712.438 633.555   6
   7   0  -3 3100.59 1494.77   6
   7   0  -2 1279.42 1102.18   6
   7   0  -1 1888.45 1331.13   6
   7   0   0 241.979 917.989   6
   7   0   1-787.864 1120.17   6
   7   0   2 388.176 937.539   6
   7   0   3 2308.34 1339.24   6
   7   0   4-329.495 759.553   6
   7   0   5 649.645 1040.38   6
   7   0   6 1107.27 1260.36   6
   7   0   7-310.069 846.342   6
   7   0   8 778.152 1119.20   6
   7   0   9 451.159 723.703   6
   7   0  10 1466.10 1412.33   6
   7   0  11 473.354 892.998   6
   7   1 -11 442.514 839.007   7
   7   1 -11 772.283 998.479   5
   7   1 -10-519.911 678.984   7
   7   1 -10 1073.18 917.472   5
   7   1  -9 13.8600 551.863   7
   7   1  -9 651.799 900.191   5
   7   1  -8-745.431 812.367   7
   7   1  -8 526.657 763.108   5
   7   1  -7-68.2758 580.758   7
   7   1  -7 481.048 1077.22   6
   7   1  -6 699.525 665.358   7
   7   1  -6 698.384 989.425   6
   7   1  -5 272.760 516.574   7
   7   1  -5 1001.61 1171.20   6
   7   1  -4 461.408 815.123   6
   7   1  -3-65.8643 568.098   6
   7   1  -2-22.9168 608.605   6
   7   1  -1 737.029 816.438   6
   7   1   0 824.833 1135.08   6
   7   1   1 1058.87 862.062   6
   7   1   2 2073.78 1140.81   6
   7   1   3 1493.89 1230.32   6
   7   1   4 771.097 1068.14   6
   7   1   5-195.093 918.469   6
   7   1   6 248.260 828.933   6
   7   1   7 1533.33 1198.34   6
   7   1   8 1694.46 1189.04   8
   7   1   8 504.789 634.925   6
   7   1   9 1848.19 1395.25   8
   7   1   9 514.243 723.771   6
   7   1  10 564.553 733.784   8
   7   1  10 1490.00 1248.82   6
   7   1  11 8.65450 949.214   8
   7   1  11-997.916 1053.30   6
   7   1  12 394.245 863.524   8
   7   1  12 176.150 957.877   6
   7   1  13 98.3298 772.014   8
   7   2 -13-379.975 644.642   5
   7   2 -12 837.127 994.409   5
   7   2 -11-78.7260 646.453   5
   7   2 -10-440.374 717.034   5
   7   2  -9 145.897 862.692   5
   7   2  -8 830.502 717.777   5
   7   2  -7 1658.88 1185.98   5
   7   2  -6 185.974 869.388   6
   7   2  -5-271.800 775.447   6
   7   2  -4 1159.11 970.859   6
   7   2  -3 1109.42 1087.74   6
   7   2  -2-652.074 791.511   6
   7   2  -1-429.123 679.227   6
   7   2   0-190.010 719.311   6
   7   2   1 389.330 684.578   6
   7   2   2 976.570 1061.11   6
   7   2   3 243.764 792.514   6
   7   2   4 1498.47 926.687   8
   7   2   4 1953.30 1221.27   6
   7   2   5 1382.61 900.672   8
   7   2   5 1899.41 1489.59   6
   7   2   6 925.948 953.271   8
   7   2   6-145.375 683.959   6
   7   2   7 839.344 1075.48   8
   7   2   7-115.475 603.709   6
   7   2   8-585.769 945.462   8
   7   2   8-183.788 816.712   6
   7   2   9-38.5863 711.796   8
   7   2   9-879.398 1000.10   6
   7   2  10 645.177 1033.44   8
   7   2  10-731.809 1191.45   6
   7   2  11 1584.53 1334.54   8
   7   2  11-55.9015 671.114   6
   7   2  12-327.999 752.490   8
   7   2  12-71.4935 738.970   6
   7   2  13 260.453 756.787   8
   7   2  13 440.076 1071.63   6
   7   3 -12-235.440 660.512   5
   7   3 -11-168.577 807.550   5
   7   3 -10-255.489 866.228   5
   7   3  -9 829.317 627.196   5
   7   3  -8 1365.92 1196.87   5
   7   3  -7 3444.15 1565.86   5
   7   3  -6 1192.05 931.723   5
   7   3  -5 766.609 944.854   6
   7   3  -4 1035.05 1089.52   6
   7   3  -3 361.514 744.870   6
   7   3  -2 349.944 523.386   6
   7   3  -1 29.3748 572.197   6
   7   3   0 713.503 965.951   6
   7   3   1 2659.41 1062.46   8
   7   3   1 1570.40 1204.40   6
   7   3   2 863.062 984.651   8
   7   3   2 1880.73 1267.77   6
   7   3   3 407.841 550.501   8
   7   3   3 896.527 804.836   6
   7   3   4 1193.62 1102.35   8
   7   3   4-849.625 954.301   6
   7   3   5-14.7722 742.962   8
   7   3   5 2142.29 1335.27   6
   7   3   6 1136.20 898.490   8
   7   3   6 691.488 914.693   6
   7   3   7 1636.69 985.034   8
   7   3   7-87.9720 698.889   6
   7   3   8-73.3857 846.009   8
   7   3   8 103.170 826.457   6
   7   3   9 107.063 825.793   8
   7   3   9 502.772 870.317   6
   7   3  10 406.934 983.300   8
   7   3  10 115.048 658.676   6
   7   3  11 451.840 1012.56   8
   7   3  11-387.318 1005.73   6
   7   3  12 45.2845 782.469   8
   7   3  12-1531.11 1091.21   6
   7   3  13 329.706 1128.52   8
   7   3  13 450.468 916.474   6
   7   4 -10-1619.73 1170.63   5
   7   4  -9-1989.39 1191.13   5
   7   4  -8 91.5098 610.414   5
   7   4  -7-360.089 710.878   5
   7   4  -6 74.2803 799.480   5
   7   4  -5 1635.39 1357.48   5
   7   4  -3 847.100 984.228   6
   7   4  -2 653.075 864.118   8
   7   4  -2 988.477 869.084   6
   7   4  -1 2.76902 671.993   8
   7   4  -1 32.3307 642.975   6
   7   4   0-478.086 605.280   8
   7   4   0 184.083 759.968   6
   7   4   1 1063.32 1041.23   8
   7   4   1 365.940 711.257   6
   7   4   2 231.868 716.637   8
   7   4   2 903.319 897.222   6
   7   4   3 365.689 641.209   8
   7   4   3 2113.04 1128.33   6
   7   4   4 645.840 825.871   8
   7   4   4 1407.81 916.210   6
   7   4   5 2193.69 1207.06   8
   7   4   5 1154.46 870.618   6
   7   4   6-114.773 681.079   8
   7   4   6 1456.26 1069.82   6
   7   4   7-550.892 1051.08   8
   7   4   7 898.348 874.429   6
   7   4   8-256.648 730.778   8
   7   4   8 1328.79 945.859   6
   7   4   9-162.498 987.428   8
   7   4   9 975.165 996.603   6
   7   4  10 317.679 878.335   8
   7   4  10 794.638 747.688   6
   7   4  11 1126.00 1046.68   8
   7   4  12 2190.56 1521.48   8
   7   5  -9-224.037 827.930   5
   7   5  -8 368.421 567.180   5
   7   5  -7 1.24082 704.145   5
   7   5  -6 2304.85 1576.79   5
   7   5  -5 2272.37 1473.35   5
   7   5  -4 1076.13 931.774   5
   7   5  -2 1371.44 1059.92   8
   7   5  -2 112.707 589.192   6
   7   5  -1 1625.44 876.982   8
   7   5  -1 784.162 820.024   6
   7   5   0 276.016 695.117   8
   7   5   0 1748.77 1106.93   6
   7   5   1 535.272 796.351   8
   7   5   2 127.940 572.909   8
   7   5   3 558.924 957.789   8
   7   5   4 335.744 671.353   8
   7   5   5-133.778 656.196   8
   7   5   6 518.522 1162.81   8
   7   5   7-823.472 1363.40   8
   7   5   8 1139.76 1071.67   8
   7   5   9 1339.39 1420.95   8
   7   5  10 168.194 735.213   8
   7   5  11 1565.57 1068.75   8
   7   6  -7 1196.69 1172.57   5
   7   6  -6 1013.72 975.595   5
   7   6  -5 678.191 954.638   5
   7   6  -4 1988.34 1374.69   5
   7   6  -2 1279.54 1039.57   8
   7   6  -1 1839.79 1279.07   8
   7   6   0-663.194 830.386   8
   7   6   1 122.974 752.124   8
   7   6   2 1717.11 945.255   8
   7   6   3 2187.54 1155.43   8
   7   6   4 250.607 594.932   8
   7   6   5 960.625 808.894   8
   7   6   6 18.5293 634.263   8
   7   6   7 503.620 916.154   8
   7   6   8-35.7953 993.510   8
   7   6   9 1052.18 938.464   8
   7   6  10-437.053 784.392   8
   7   7  -4 434.684 1163.59   5
   7   7  -2 1612.32 1213.99   8
   7   7  -1-383.438 864.730   8
   7   7   0 1994.83 1292.22   8
   7   7   1 220.550 610.728   8
   7   7   2 60.8681 743.131   8
   7   7   3-1038.14 1073.64   8
   7   7   4 855.395 1068.22   8
   7   7   5 1936.43 1541.50   8
   7   7   6 3881.00 1953.57   8
   7   7   7 134.622 806.286   8
   7   7   8-473.519 826.270   8
   7   8  -1 2001.70 1315.71   8
   7   8   0 1113.72 1044.55   8
   7   8   1 2002.47 1393.44   8
   7   8   2 1116.31 1258.33   8
   7   8   3 1324.37 1317.62   8
   7   8   4-192.643 949.149   8
   7   8   5 657.622 710.594   8
   8   0  -3 821.622 902.049   6
   8   0  -2 211.455 1151.34   6
   8   0  -1-1042.72 1085.90   6
   8   0   0-172.884 767.863   6
   8   0   1 369.142 1052.39   6
   8   0   2 1441.67 1310.88   6
   8   0   3 721.453 974.422   6
   8   1  -4 510.891 666.124   6
   8   1  -3 318.016 819.954   6
   8   1  -2-49.0555 866.353   6
   8   1  -1-54.3709 876.308   6
   8   1   0 429.635 680.578   6
   8   1   1 1564.86 1370.08   6
   8   1   2-286.943 808.944   6
   8   1   3 580.627 1244.58   6
   8   1   4 396.494 975.205   6
   8   1   5-415.017 1114.03   6
   8   2  -5 120.219 670.170   6
   8   2  -4-7.81966 737.946   6
   8   2  -3-523.977 754.354   6
   8   2  -2 732.216 872.637   6
   8   2  -1 978.896 961.377   6
   8   2   0-988.392 1128.48   6
   8   2   1 1975.91 1332.87   6
   8   2   2-916.347 1025.66   6
   8   2   3 696.783 894.870   6
   8   2   4 1653.71 1342.18   6
   8   2   5-261.035 654.655   6
   8   2   6 1066.47 1262.75   6
   8   2   7 950.170 780.745   6
   8   3  -4-21.5992 910.798   6
   8   3  -3 2231.80 1617.11   6
   8   3  -2 41.0391 703.316   6
   8   3  -1-413.203 602.698   6
   8   3   0 1454.93 1208.05   6
   8   3   1 445.223 569.445   6
   8   3   2 562.842 766.339   6
   8   3   3 489.384 689.964   6
   8   3   4-237.606 669.203   6
   8   3   5 814.617 1006.21   6
   8   3   6-416.345 695.049   6
   8   3   7-288.803 654.573   6
   8   4  -3 570.556 826.760   6
   8   4  -2-13.2757 570.679   6
   8   4  -1-316.195 880.551   6
   8   4   0 539.063 813.074   6
   8   4   1-528.463 884.101   6
   8   4   2 336.402 571.610   6
   8   4   3-794.339 801.855   6
   8   4   8 107.588 618.871   8
   8   5   4-426.396 661.650   8
   8   5   5 159.273 665.557   8
   8   5   6-365.387 708.128   8
   8   6   2 288.272 873.978   8
   8   6   3 578.492 844.706   8
   0   0   0    0.00    0.00   0
TITL musa37 in P1
REM P1 (#1 in standard setting)
CELL 0.71073   5.669319   8.945675  16.291900  83.3408  89.5338  82.4911
ZERR    3.00   0.000258   0.000389   0.000747   0.0037   0.0037   0.0037
LATT -1
SFAC C H N I
UNIT 39.00 69.00 6.00 3.00
TREF
HKLF 4
END
;
_shelx_hkl_checksum              2661
_publcif_funding_html
;
;
loop_
_space_group_symop_operation_xyz
'x, y, z'
'-x, -y, -z'
loop_
_atom_site_label
_atom_site_type_symbol
_atom_site_fract_x
_atom_site_fract_y
_atom_site_fract_z
_atom_site_U_iso_or_equiv
_atom_site_adp_type
_atom_site_occupancy
_atom_site_site_symmetry_order
_atom_site_calc_flag
_atom_site_refinement_flags_posn
_atom_site_refinement_flags_adp
_atom_site_refinement_flags_occupancy
_atom_site_disorder_assembly
_atom_site_disorder_group
I I 0.11316(6) 0.74147(3) 0.42796(2) 0.06645(16) Uani 1 1 d . . . . .
N1 N 0.3798(7) 0.6652(4) 0.6368(2) 0.0559(10) Uani 1 1 d . . . . .
N2 N 0.2229(7) 0.7671(4) 0.6679(3) 0.0639(11) Uani 1 1 d . . . . .
C3 C 0.2714(10) 0.9060(6) 0.6580(3) 0.0751(15) Uani 1 1 d . . . . .
H3 H 0.1651 0.9803 0.6789 0.090 Uiso 1 1 calc R U . . .
C4 C 0.4726(10) 0.9501(6) 0.6180(3) 0.0725(15) Uani 1 1 d . . . . .
H4 H 0.5005 1.0509 0.6124 0.087 Uiso 1 1 calc R U . . .
C5 C 0.6252(9) 0.8435(7) 0.5878(3) 0.0702(14) Uani 1 1 d . . . . .
H5 H 0.7635 0.8676 0.5613 0.084 Uiso 1 1 calc R U . . .
C6 C 0.5710(9) 0.6964(6) 0.5972(3) 0.0651(13) Uani 1 1 d . . . . .
H6 H 0.6706 0.6200 0.5754 0.078 Uiso 1 1 calc R U . . .
C11 C 0.3125(10) 0.5107(5) 0.6461(3) 0.0749(15) Uani 1 1 d . . . . .
H11A H 0.4314 0.4441 0.6199 0.090 Uiso 1 1 calc R U . . .
H11B H 0.1618 0.5119 0.6180 0.090 Uiso 1 1 calc R U . . .
C12 C 0.2904(11) 0.4490(7) 0.7349(4) 0.0850(17) Uani 1 1 d . . . . .
H12A H 0.2360 0.3502 0.7376 0.102 Uiso 1 1 calc R U . . .
H12B H 0.1708 0.5156 0.7608 0.102 Uiso 1 1 calc R U . . .
C13 C 0.5189(11) 0.4337(7) 0.7827(4) 0.0915(18) Uani 1 1 d . . . . .
H13A H 0.5616 0.5342 0.7864 0.110 Uiso 1 1 calc R U . . .
H13B H 0.6436 0.3791 0.7525 0.110 Uiso 1 1 calc R U . . .
C14 C 0.5080(12) 0.3514(8) 0.8698(4) 0.101(2) Uani 1 1 d . . . . .
H14A H 0.3866 0.4074 0.9007 0.121 Uiso 1 1 calc R U . . .
H14B H 0.4616 0.2516 0.8664 0.121 Uiso 1 1 calc R U . . .
C15 C 0.7394(13) 0.3337(8) 0.9156(4) 0.111(2) Uani 1 1 d . . . . .
H15A H 0.7811 0.4338 0.9214 0.133 Uiso 1 1 calc R U . . .
H15B H 0.8623 0.2830 0.8829 0.133 Uiso 1 1 calc R U . . .
C16 C 0.7371(13) 0.2453(9) 1.0001(4) 0.115(2) Uani 1 1 d . . . . .
H16A H 0.6902 0.1465 0.9945 0.138 Uiso 1 1 calc R U . . .
H16B H 0.6183 0.2979 1.0335 0.138 Uiso 1 1 calc R U . . .
C17 C 0.9766(14) 0.2234(9) 1.0449(4) 0.120(2) Uani 1 1 d . . . . .
H17A H 1.0963 0.1747 1.0103 0.144 Uiso 1 1 calc R U . . .
H17B H 1.0201 0.3224 1.0522 0.144 Uiso 1 1 calc R U . . .
C18 C 0.9802(14) 0.1309(11) 1.1273(4) 0.140(3) Uani 1 1 d . . . . .
H18A H 0.9368 0.0319 1.1200 0.168 Uiso 1 1 calc R U . . .
H18B H 0.8604 0.1795 1.1619 0.168 Uiso 1 1 calc R U . . .
C19 C 1.2147(15) 0.1097(11) 1.1712(5) 0.159(4) Uani 1 1 d . . . . .
H19A H 1.2032 0.0494 1.2234 0.238 Uiso 1 1 calc R U . . .
H19B H 1.3340 0.0591 1.1382 0.238 Uiso 1 1 calc R U . . .
H19C H 1.2575 0.2069 1.1801 0.238 Uiso 1 1 calc R U . . .
loop_
_atom_site_aniso_label
_atom_site_aniso_U_11
_atom_site_aniso_U_22
_atom_site_aniso_U_33
_atom_site_aniso_U_23
_atom_site_aniso_U_13
_atom_site_aniso_U_12
I 0.0666(2) 0.0503(2) 0.0831(3) -0.00652(16) -0.00659(18) -0.01042(15)
N1 0.057(2) 0.048(2) 0.062(3) -0.0044(19) -0.004(2) -0.0044(19)
N2 0.063(2) 0.050(2) 0.075(3) 0.000(2) 0.012(2) 0.001(2)
C3 0.081(4) 0.062(3) 0.076(4) 0.002(3) 0.003(3) 0.002(3)
C4 0.084(4) 0.061(3) 0.072(4) 0.004(3) -0.009(3) -0.020(3)
C5 0.054(3) 0.091(4) 0.067(3) 0.001(3) -0.003(3) -0.020(3)
C6 0.055(3) 0.077(4) 0.063(3) -0.014(3) -0.001(3) -0.003(3)
C11 0.091(4) 0.055(3) 0.078(4) 0.004(3) -0.014(3) -0.017(3)
C12 0.091(4) 0.070(4) 0.094(5) 0.004(3) -0.008(4) -0.023(3)
C13 0.101(5) 0.082(4) 0.090(5) 0.003(3) -0.014(4) -0.020(3)
C14 0.113(5) 0.097(5) 0.085(5) 0.015(4) -0.009(4) -0.009(4)
C15 0.122(6) 0.115(5) 0.089(5) 0.015(4) -0.018(4) -0.017(4)
C16 0.126(6) 0.132(6) 0.080(5) 0.006(4) -0.015(4) -0.002(5)
C17 0.127(6) 0.147(7) 0.087(5) -0.003(5) -0.021(5) -0.023(5)
C18 0.124(7) 0.213(10) 0.076(5) 0.006(6) -0.017(5) -0.008(6)
C19 0.134(7) 0.227(11) 0.113(7) -0.011(7) -0.035(6) -0.017(7)
loop_
_atom_type_symbol
_atom_type_description
_atom_type_scat_dispersion_real
_atom_type_scat_dispersion_imag
_atom_type_scat_source
C C 0.0033 0.0016 'International Tables Vol C Tables 4.2.6.8 and 6.1.1.4'
H H 0.0000 0.0000 'International Tables Vol C Tables 4.2.6.8 and 6.1.1.4'
N N 0.0061 0.0033 'International Tables Vol C Tables 4.2.6.8 and 6.1.1.4'
I I -0.4742 1.8119 'International Tables Vol C Tables 4.2.6.8 and 6.1.1.4'
loop_
_geom_angle_atom_site_label_1
_geom_angle_atom_site_label_2
_geom_angle_atom_site_label_3
_geom_angle
_geom_angle_site_symmetry_1
_geom_angle_site_symmetry_3
C6 N1 N2 124.6(4) . .
C6 N1 C11 121.3(4) . .
N2 N1 C11 114.0(4) . .
C3 N2 N1 115.9(4) . .
N2 C3 C4 123.8(5) . .
N2 C3 H3 118.1 . .
C4 C3 H3 118.1 . .
C5 C4 C3 118.1(5) . .
C5 C4 H4 120.9 . .
C3 C4 H4 120.9 . .
C4 C5 C6 117.9(5) . .
C4 C5 H5 121.1 . .
C6 C5 H5 121.1 . .
N1 C6 C5 119.7(5) . .
N1 C6 H6 120.1 . .
C5 C6 H6 120.1 . .
N1 C11 C12 112.2(4) . .
N1 C11 H11A 109.2 . .
C12 C11 H11A 109.2 . .
N1 C11 H11B 109.2 . .
C12 C11 H11B 109.2 . .
H11A C11 H11B 107.9 . .
C11 C12 C13 113.4(5) . .
C11 C12 H12A 108.9 . .
C13 C12 H12A 108.9 . .
C11 C12 H12B 108.9 . .
C13 C12 H12B 108.9 . .
H12A C12 H12B 107.7 . .
C12 C13 C14 113.9(5) . .
C12 C13 H13A 108.8 . .
C14 C13 H13A 108.8 . .
C12 C13 H13B 108.8 . .
C14 C13 H13B 108.8 . .
H13A C13 H13B 107.7 . .
C15 C14 C13 113.0(5) . .
C15 C14 H14A 109.0 . .
C13 C14 H14A 109.0 . .
C15 C14 H14B 109.0 . .
C13 C14 H14B 109.0 . .
H14A C14 H14B 107.8 . .
C14 C15 C16 114.1(6) . .
C14 C15 H15A 108.7 . .
C16 C15 H15A 108.7 . .
C14 C15 H15B 108.7 . .
C16 C15 H15B 108.7 . .
H15A C15 H15B 107.6 . .
C15 C16 C17 113.6(6) . .
C15 C16 H16A 108.9 . .
C17 C16 H16A 108.9 . .
C15 C16 H16B 108.9 . .
C17 C16 H16B 108.9 . .
H16A C16 H16B 107.7 . .
C18 C17 C16 114.3(7) . .
C18 C17 H17A 108.7 . .
C16 C17 H17A 108.7 . .
C18 C17 H17B 108.7 . .
C16 C17 H17B 108.7 . .
H17A C17 H17B 107.6 . .
C17 C18 C19 114.3(7) . .
C17 C18 H18A 108.7 . .
C19 C18 H18A 108.7 . .
C17 C18 H18B 108.7 . .
C19 C18 H18B 108.7 . .
H18A C18 H18B 107.6 . .
C18 C19 H19A 109.5 . .
C18 C19 H19B 109.5 . .
H19A C19 H19B 109.5 . .
C18 C19 H19C 109.5 . .
H19A C19 H19C 109.5 . .
H19B C19 H19C 109.5 . .
loop_
_geom_bond_atom_site_label_1
_geom_bond_atom_site_label_2
_geom_bond_distance
_geom_bond_site_symmetry_2
N1 C6 1.302(6) .
N1 N2 1.329(5) .
N1 C11 1.472(6) .
N2 C3 1.300(6) .
C3 C4 1.388(7) .
C3 H3 0.9300 .
C4 C5 1.336(7) .
C4 H4 0.9300 .
C5 C6 1.381(7) .
C5 H5 0.9300 .
C6 H6 0.9300 .
C11 C12 1.498(7) .
C11 H11A 0.9700 .
C11 H11B 0.9700 .
C12 C13 1.499(8) .
C12 H12A 0.9700 .
C12 H12B 0.9700 .
C13 C14 1.527(8) .
C13 H13A 0.9700 .
C13 H13B 0.9700 .
C14 C15 1.495(8) .
C14 H14A 0.9700 .
C14 H14B 0.9700 .
C15 C16 1.507(9) .
C15 H15A 0.9700 .
C15 H15B 0.9700 .
C16 C17 1.526(9) .
C16 H16A 0.9700 .
C16 H16B 0.9700 .
C17 C18 1.492(9) .
C17 H17A 0.9700 .
C17 H17B 0.9700 .
C18 C19 1.494(10) .
C18 H18A 0.9700 .
C18 H18B 0.9700 .
C19 H19A 0.9600 .
C19 H19B 0.9600 .
C19 H19C 0.9600 .
loop_
_geom_hbond_atom_site_label_D
_geom_hbond_atom_site_label_H
_geom_hbond_atom_site_label_A
_geom_hbond_distance_DH
_geom_hbond_distance_HA
_geom_hbond_distance_DA
_geom_hbond_angle_DHA
_geom_hbond_site_symmetry_A
C3 H3 I 0.93 3.12 3.726(5) 124.5 2_576
C4 H4 I 0.93 3.07 3.857(5) 143.2 2_676
C5 H5 I 0.93 3.14 3.879(6) 138.1 1_655
C6 H6 I 0.93 3.31 4.153(5) 151.5 2_666
C11 H11A I 0.97 3.03 3.974(6) 165.0 2_666
C11 H11B I 0.97 3.08 3.803(5) 132.8 2_566
loop_
_geom_torsion_atom_site_label_1
_geom_torsion_atom_site_label_2
_geom_torsion_atom_site_label_3
_geom_torsion_atom_site_label_4
_geom_torsion
_geom_torsion_site_symmetry_1
_geom_torsion_site_symmetry_2
_geom_torsion_site_symmetry_3
_geom_torsion_site_symmetry_4
C6 N1 N2 C3 -1.1(7) . . . .
C11 N1 N2 C3 -177.4(4) . . . .
N1 N2 C3 C4 -0.1(8) . . . .
N2 C3 C4 C5 0.1(8) . . . .
C3 C4 C5 C6 1.0(8) . . . .
N2 N1 C6 C5 2.2(7) . . . .
C11 N1 C6 C5 178.3(4) . . . .
C4 C5 C6 N1 -2.1(7) . . . .
C6 N1 C11 C12 122.2(5) . . . .
N2 N1 C11 C12 -61.4(6) . . . .
N1 C11 C12 C13 -62.3(6) . . . .
C11 C12 C13 C14 -172.1(5) . . . .
C12 C13 C14 C15 178.5(6) . . . .
C13 C14 C15 C16 -176.8(6) . . . .
C14 C15 C16 C17 178.0(6) . . . .
C15 C16 C17 C18 -177.7(7) . . . .
C16 C17 C18 C19 -179.9(8) . . . .
