#------------------------------------------------------------------------------
#$Date: 2022-05-10 11:04:41 +0300 (Tue, 10 May 2022) $
#$Revision: 275293 $
#$URL: file:///home/coder/svn-repositories/cod/cif/8/10/51/8105199.cif $
#------------------------------------------------------------------------------
#
# This file is available in the Crystallography Open Database (COD),
# http://www.crystallography.net/
#
# All data on this site have been placed in the public domain by the
# contributors.
#
data_8105199
loop_
_publ_author_name
'Klein, Wilhelm'
_publ_section_title
;
 Crystal structure of tetraaqua-tris(nitrato-\k2 O,O&#x2032;) erbium(III)
 monohydrate, Er(NO3)3&#x00B7;5H2O, H10ErN3O14
;
_journal_issue                   2
_journal_name_full
'Zeitschrift f\"ur Kristallographie - New Crystal Structures'
_journal_page_first              265
_journal_page_last               266
_journal_paper_doi               10.1515/ncrs-2021-0484
_journal_volume                  237
_journal_year                    2022
_chemical_formula_moiety         'Er H8 N3 O13, H2 O'
_chemical_formula_sum            'Er H10 N3 O14'
_chemical_formula_weight         443.37
_chemical_name_common            'erbium nitrate pentahydrate'
_chemical_name_systematic
'Tetraaqua-trinitrato(V)-erbium(III) Monohydrate'
_space_group_crystal_system      triclinic
_space_group_IT_number           2
_space_group_name_Hall           '-P 1'
_space_group_name_H-M_alt        'P -1'
_atom_sites_solution_hydrogens   difmap
_atom_sites_solution_primary     direct
_atom_sites_solution_secondary   difmap
_audit_creation_method           SHELXL-2014/7
_cell_angle_alpha                63.742(4)
_cell_angle_beta                 84.551(5)
_cell_angle_gamma                76.038(5)
_cell_formula_units_Z            2
_cell_length_a                   6.5913(4)
_cell_length_b                   9.5211(5)
_cell_length_c                   10.4936(6)
_cell_measurement_reflns_used    57278
_cell_measurement_temperature    223(2)
_cell_measurement_theta_max      35.08
_cell_measurement_theta_min      3.19
_cell_volume                     573.09(6)
_computing_cell_refinement       'STOE X-AREA 1.76'
_computing_data_collection       'STOE X-AREA 1.76'
_computing_data_reduction        'STOE X-AREA 1.76'
_computing_molecular_graphics    'DIAMOND 3.2k'
_computing_structure_refinement  SHELXL-2014/7
_computing_structure_solution    SHELXS-97
_diffrn_ambient_temperature      223(2)
_diffrn_detector_area_resol_mean 5.81
_diffrn_detector_type            'Dectris Pilatus 300K'
_diffrn_measured_fraction_theta_full 0.999
_diffrn_measured_fraction_theta_max 0.999
_diffrn_measurement_device_type  'STOE StadiVari'
_diffrn_measurement_method       '\w scans'
_diffrn_radiation_collimation    '0.6 mm diameter'
_diffrn_radiation_monochromator  'Graded multilayer mirror'
_diffrn_radiation_type           MoK\a
_diffrn_radiation_wavelength     0.71073
_diffrn_reflns_av_R_equivalents  0.0252
_diffrn_reflns_av_unetI/netI     0.0201
_diffrn_reflns_Laue_measured_fraction_full 0.999
_diffrn_reflns_Laue_measured_fraction_max 0.999
_diffrn_reflns_limit_h_max       9
_diffrn_reflns_limit_h_min       -9
_diffrn_reflns_limit_k_max       13
_diffrn_reflns_limit_k_min       -13
_diffrn_reflns_limit_l_max       14
_diffrn_reflns_limit_l_min       -14
_diffrn_reflns_number            21486
_diffrn_reflns_point_group_measured_fraction_full 0.999
_diffrn_reflns_point_group_measured_fraction_max 0.999
_diffrn_reflns_theta_full        25.242
_diffrn_reflns_theta_max         29.999
_diffrn_reflns_theta_min         3.185
_diffrn_source                   'Genix 3D HF Mo'
_diffrn_source_current           1.000
_diffrn_source_power             0.050
_diffrn_source_voltage           50
_exptl_absorpt_coefficient_mu    7.406
_exptl_absorpt_correction_T_max  1.000
_exptl_absorpt_correction_T_min  0.574
_exptl_absorpt_correction_type   empirical
_exptl_absorpt_process_details   'STOE X-AREA 1.76'
_exptl_crystal_colour            pink
_exptl_crystal_density_diffrn    2.569
_exptl_crystal_description       fragment
_exptl_crystal_F_000             422
_exptl_crystal_size_max          0.3
_exptl_crystal_size_mid          0.15
_exptl_crystal_size_min          0.1
_refine_diff_density_max         0.923
_refine_diff_density_min         -1.010
_refine_diff_density_rms         0.100
_refine_ls_extinction_coef       0.0173(5)
_refine_ls_extinction_expression Fc^*^=kFc[1+0.001xFc^2^\l^3^/sin(2\q)]^-1/4^
_refine_ls_extinction_method     SHELXL-2014/7
_refine_ls_goodness_of_fit_ref   0.971
_refine_ls_hydrogen_treatment    refall
_refine_ls_matrix_type           full
_refine_ls_number_parameters     204
_refine_ls_number_reflns         3337
_refine_ls_number_restraints     0
_refine_ls_restrained_S_all      0.971
_refine_ls_R_factor_all          0.0163
_refine_ls_R_factor_gt           0.0141
_refine_ls_shift/su_max          0.001
_refine_ls_shift/su_mean         0.000
_refine_ls_structure_factor_coef Fsqd
_refine_ls_weighting_details
'w=1/[\s^2^(Fo^2^)+(0.0200P)^2^] where P=(Fo^2^+2Fc^2^)/3'
_refine_ls_weighting_scheme      calc
_refine_ls_wR_factor_gt          0.0315
_refine_ls_wR_factor_ref         0.0318
_reflns_number_gt                3078
_reflns_number_total             3337
_reflns_threshold_expression     'I > 2\s(I)'
_cod_data_source_file            suppl_j_ncrs-2021-0484_suppl.cif
_cod_data_source_block           ErNO-5_223K
_cod_database_code               8105199
_shelx_shelxl_version_number     2014/7
_shelx_space_group_comment
;
The symmetry employed for this shelxl refinement is uniquely defined
by the following loop, which should always be used as a source of
symmetry information in preference to the above space-group names.
They are only intended as comments.
;
_shelx_res_file
;

    ErNO-5_223K.res created by SHELXL-2014/7

TITL ErNO-5 (223K) in P-1 (Nr.2)
CELL 0.71073   6.5913   9.5211  10.4936  63.742  84.551  76.038
ZERR 2         0.0004   0.0005   0.0006   0.004   0.005   0.005
LATT  1
SFAC Er N O H
UNIT 2 6 28 20
TEMP -50
OMIT -2 60
L.S. 10
BOND $H
CONN 13 1.8 ER
CONN 9 1.6 O1 O2 O5 O7 O8 O10 O11 O12
CONN 6 1.6 O3 O6 O9 O14
CONN 7 2 O4
CONN 10 2 O13
EQIV $1 -x, -y+1, -z+1
EQIV $2 x-1, y, z
EQIV $3 1-x, -y, 1-z
EQIV $4 x, y-1, z
EQIV $5 -x, -y+1, -z
EQIV $6 -x+1, -y+1, -z
EQIV $7 -x+1, -y+1, -z+1
EQIV $8 x-1, y+1, z
HTAB O10 O1_$1
HTAB O10 O13_$2
HTAB O10 O2_$2
HTAB O11 O14_$1
HTAB O11 O2_$3
HTAB O12 O14_$4
HTAB O12 O7_$5
HTAB O13 O5_$6
HTAB O13 O3_$7
HTAB O14 O3_$7
HTAB O14 O9
HTAB O14 O6_$8
FMAP -2
PLAN 10
ACTA
WGHT    0.020000
EXTI    0.017318
FVAR       0.62813
ER    1    0.243762    0.349160    0.294713    11.00000    0.01399    0.01281 =
         0.01213   -0.00557   -0.00060   -0.00224
N1    2    0.468031    0.281223    0.555230    11.00000    0.01913    0.01691 =
         0.01687   -0.00752   -0.00180   -0.00437
O1    3    0.294363    0.381680    0.508127    11.00000    0.02100    0.02501 =
         0.02370   -0.01421   -0.00635    0.00516
O2    3    0.552339    0.212773    0.478573    11.00000    0.02262    0.02095 =
         0.02328   -0.01231    0.00055   -0.00150
O3    3    0.547422    0.255485    0.666452    11.00000    0.03634    0.03633 =
         0.02627   -0.01744   -0.01459   -0.00052
N2    2    0.519619    0.213496    0.124792    11.00000    0.02366    0.02272 =
         0.02143   -0.01194    0.00370   -0.00331
O4    3    0.500932    0.140640    0.258469    11.00000    0.03266    0.02545 =
         0.01799   -0.00841    0.00154    0.00252
O5    3    0.405743    0.356379    0.066763    11.00000    0.02990    0.01820 =
         0.02076   -0.00824    0.00407   -0.00313
O6    3    0.637246    0.155246    0.056355    11.00000    0.04558    0.03656 =
         0.03276   -0.02091    0.01306    0.00306
N3    2    0.024306    0.685072    0.146533    11.00000    0.02185    0.01729 =
         0.02306   -0.00976   -0.00267   -0.00160
O7    3    0.061154    0.580899    0.095697    11.00000    0.03428    0.01528 =
         0.01977   -0.00849   -0.00812   -0.00014
O8    3    0.104797    0.637632    0.266945    11.00000    0.02589    0.02350 =
         0.02191   -0.01266   -0.00478   -0.00280
O9    3   -0.081066    0.819641    0.081197    11.00000    0.04593    0.01827 =
         0.03873   -0.01056   -0.01426    0.01032
O10   3   -0.091203    0.386085    0.393860    11.00000    0.01554    0.02661 =
         0.03019   -0.01897    0.00145   -0.00349
H1    4   -0.147214    0.455727    0.421241    11.00000    0.04036
H2    4   -0.177655    0.387149    0.352188    11.00000    0.04211
O11   3    0.196422    0.099985    0.468362    11.00000    0.02555    0.01551 =
         0.01876   -0.00360    0.00187   -0.00213
H3    4    0.133982    0.086703    0.543746    11.00000    0.03982
H4    4    0.271829    0.013797    0.475900    11.00000    0.03496
O12   3    0.025188    0.264109    0.194243    11.00000    0.03361    0.01863 =
         0.01698   -0.00732   -0.00420   -0.00903
H5    4    0.027184    0.162214    0.221190    11.00000    0.03555
H6    4    0.007756    0.312031    0.111663    11.00000    0.04743
O13   3    0.514222    0.501366    0.222751    11.00000    0.02346    0.01957 =
         0.01842   -0.00838    0.00212   -0.00608
H7    4    0.539284    0.539978    0.141024    11.00000    0.04714
H8    4    0.495875    0.573388    0.242847    11.00000    0.03059
O14   3    0.004107    0.954260    0.279238    11.00000    0.04853    0.01941 =
         0.02519   -0.01165   -0.00041   -0.00295
H9    4    0.097459    0.889635    0.290312    11.00000    0.08287
H10   4   -0.064915    0.958110    0.223869    11.00000    0.04823
HKLF 4

REM  ErNO-5 (223K) in P-1 (Nr.2)
REM R1 =  0.0141 for    3078 Fo > 4sig(Fo)  and  0.0163 for all    3337 data
REM    204 parameters refined using      0 restraints

END

WGHT      0.0200      0.0000

REM Highest difference peak  0.923,  deepest hole -1.010,  1-sigma level  0.100
Q1    1   0.2032  0.3236  0.3798  11.00000  0.05   -1.01
Q2    1   0.1035  0.3578  0.3146  11.00000  0.05   -0.93
Q3    1   0.2587  0.3417  0.1818  11.00000  0.05    0.92
Q4    1   0.2328  0.3532  0.4107  11.00000  0.05    0.92
Q5    1   0.1960  0.4055  0.3477  11.00000  0.05    0.85
Q6    1   0.3742  0.3460  0.2823  11.00000  0.05   -0.85
Q7    1   0.2832  0.3678  0.2240  11.00000  0.05   -0.82
Q8    1   0.2482  0.2808  0.2776  11.00000  0.05    0.72
Q9    1   0.4369  0.3596  0.2406  11.00000  0.05   -0.71
Q10   1   0.1586  0.3794  0.2360  11.00000  0.05    0.59
;
_shelx_hkl_file
;
  -7  -6  -3  302.63   30.09   0
  -3 -12  -2  697.78   31.99   0
  -2 -11  -2  938.65   35.86   0
   0  -9  -1 1141.92   39.88   0
   1  -8   0 1918.15   54.23   0
   4   0   5 1826.88   86.49   0
  -9  -9  -2  341.82   30.91   0
  -9  -8  -2  369.56   32.72   0
  -4 -11  -3   56.61   23.02   0
  -4  -4  -3  232.36   28.00   0
  -3 -10  -3  787.26   32.86   0
  -2  -8  -3 1056.97   35.72   0
  -2  -6  -3 3810.76   66.45   0
  -1  -9  -2 1167.60   37.39   0
   0 -11   1  591.51   38.31   0
   1 -10   2  159.52   40.17   0
   2  -6   1  251.51   37.47   0
  -8  -5  -2   10.36   28.93   0
  -6 -11  -3   64.52   21.29   0
  -5 -11  -3  615.35   31.47   0
  -2  -7  -3   21.17   18.82   0
   0 -10   0  792.17   38.85   0
  -7  -9  -3   -4.14   23.14   0
  -7  -7  -3  644.88   33.03   0
  -4 -12  -2   -3.20   22.75   0
  -1 -12   1  265.95   34.59   0
   1  -9   1  602.35   40.05   0
  -8  -3  -1   36.04   33.73   0
  -7  -8  -3  460.24   29.89   0
  -6 -10  -3  132.98   22.32   0
  -4 -10  -3  759.78   32.72   0
  -3  -9  -3    3.26   19.53   0
  -2 -10  -2  734.97   32.75   0
  -1  -8  -2  597.26   30.86   0
  -8 -10  -2  365.83   31.70   0
  -6 -12  -2   10.90   26.56   0
  -5 -10  -3  817.39   31.60   0
  -3 -11  -2  255.01   25.49   0
  -3  -5  -3  625.09   31.96   0
   1  -7   0  187.27   29.95   0
   3  -5   3  554.99   53.96   0
  -8  -6  -2  516.08   36.84   0
  -7  -4  -2  223.68   32.29   0
  -6  -6  -3  975.10   35.61   0
  -3 -12  -1    1.79   25.46   0
  -3  -8  -3 1399.22   37.45   0
  -3  -2  -2 3831.85   95.60   0
  -2 -12   0  128.60   30.55   0
  -1 -11   0  534.92   33.51   0
  -1  -4  -2   80.74   20.81   0
  -1  -1  -1 4322.68  155.66   0
   0 -11   2   -0.27   31.27   0
  -8  -9  -2   95.88   27.30   0
  -7 -11  -2  176.31   28.51   0
  -6  -3  -2 1147.35   48.08   0
  -4  -9  -3 1609.22   38.97   0
  -3  -7  -3  824.57   32.39   0
  -3  -6  -3  112.84   19.74   0
  -1 -12   2  172.46   35.13   0
  -1  -7  -2   -4.03   18.78   0
   1 -10   3  180.59   38.72   0
  -9  -9  -1  141.52   30.35   0
  -9  -6  -1  239.12   35.47   0
  -8  -8  -2  138.83   28.07   0
  -8  -7  -2  713.81   36.01   0
  -7  -2  -1  100.60   32.36   0
  -5  -9  -3    0.80   20.16   0
   2  -8   3  448.62   41.42   0
   2  -7   2  688.31   45.23   0
   2  -3   1  106.83   39.90   0
  -9  -8  -1   15.02   28.99   0
  -9  -7  -1  375.56   36.99   0
  -6 -11  -2  410.16   28.54   0
  -5 -11  -2  178.39   26.78   0
  -5  -8  -3  971.87   32.03   0
  -4  -8  -3  285.05   22.59   0
  -4   4   2 1688.67   71.40   0
  -2  -9  -2  105.65   21.79   0
  -1  -6  -2 2797.26   59.75   0
  -1  -5  -2 3688.00   72.42   0
   0 -10   1   42.26   27.61   0
   0  -9   0  260.12   31.60   0
   4  -2   5    0.04   10.23   0
  -4  -7  -3  513.82   26.80   0
  -4  -6  -3 2902.81   53.66   0
  -3 -10  -2  226.20   25.16   0
  -3   3   1  589.98   54.13   0
   0 -11   3  462.98   44.67   0
   3  -6   4  120.89   43.46   0
  -2 -12   1  220.25   32.20   0
  -2  -3  -2 3808.06   85.57   0
  -1 -11   1   64.26   30.74   0
   1  -9   2   49.58   34.17   0
   1  -8   1   41.38   26.16   0
  -8 -10  -1   13.88   28.23   0
  -8  -4  -1  366.95   36.85   0
  -7  -5  -2 1148.12   40.60   0
  -3 -11  -1  391.14   26.72   0
   0  -6  -1  486.46   31.53   0
  -2 -10  -1   10.43   21.04   0
  -2  -8  -2  696.15   30.77   0
  -1 -10   0    7.26   24.94   0
  -7  -8  -2  586.62   32.56   0
  -7  -6  -2  386.66   29.87   0
  -5 -10  -2   36.48   21.62   0
  -4 -12   0  161.60   26.74   0
   3  -4   3   83.66   44.19   0
  -8  -2   0  172.91   38.92   0
  -7  -7  -2   23.80   22.30   0
  -6 -11  -1  347.45   30.35   0
  -6  -4  -2 1394.62   45.57   0
  -5  -3  -2  249.10   29.44   0
  -4 -11  -1  346.58   27.57   0
   0 -10   2  555.45   37.25   0
   2  -8   4  339.55   41.81   0
  -6  -9  -2  184.84   21.94   0
  -5 -12   0  388.98   31.64   0
  -5 -11  -1  179.75   27.83   0
  -2  -7  -2 2487.08   50.66   0
  -1 -11   2  759.23   40.61   0
  -1  -8  -1  716.69   31.61   0
   0  -8   0  266.52   28.07   0
  -9  -8   0  228.31   33.30   0
  -9  -5   0  393.94   39.51   0
  -8  -8  -1  507.44   33.11   0
  -8  -5  -1  708.79   39.72   0
  -5  -9  -2  982.38   33.34   0
  -4  -9  -2   43.10   19.70   0
  -2  -4  -2 4059.95   77.67   0
   0  -9   1  465.94   33.80   0
   0   2   1 2756.42   94.77   0
   1  -9   3  709.04   43.45   0
   2  -6   2 1827.12   62.44   0
  -8  -7  -1  111.72   26.59   0
  -8  -6  -1  133.36   29.54   0
  -3 -11   0  498.68   28.75   0
  -3 -10  -1  376.43   27.12   0
  -3  -8  -2 1210.37   35.59   0
  -2 -11   1  580.94   35.55   0
  -2  -9  -1  921.01   34.33   0
  -2  -6  -2  940.62   35.27   0
   1  -7   1 1209.09   45.62   0
  -9  -7   0  143.23   28.81   0
  -9  -6   0   23.71   31.33   0
  -7  -3  -1 1501.36   52.04   0
  -6  -5  -2   79.21   21.75   0
  -4 -12   1  256.95   31.25   0
  -2  -5  -2  943.56   37.42   0
  -1 -10   1  876.18   38.82   0
   2  -7   3  710.35   45.10   0
  -6 -10  -1    9.01   21.04   0
  -5  -8  -2  837.00   31.42   0
  -4 -10  -1   57.76   22.09   0
  -4  -8  -2  740.46   28.57   0
  -1 -11   3   69.67   30.98   0
   0 -10   3  598.00   40.94   0
   1  -8   2  881.76   42.67   0
  -6 -11   0   81.27   27.95   0
  -5  -1  -1  353.86   40.72   0
  -4 -11   0   44.68   23.51   0
  -3  -7  -2    3.86   16.29   0
  -1  -7  -1 3662.25   62.01   0
  -8  -9   0  190.40   28.71   0
  -7  -1   0 1034.00   58.01   0
  -5 -11   0  598.94   33.54   0
  -5  -7  -2   96.95   20.58   0
   1  -9   4   41.28   35.99   0
  -7 -10   0  103.16   26.91   0
  -6  -2  -1 1594.35   55.90   0
  -5   4   2    1.35   52.64   0
  -3 -11   1   19.52   26.04   0
  -3  -9  -1  143.23   22.32   0
  -3  -4  -2  459.31   28.99   0
  -2 -11   2   16.64   29.74   0
  -1 -11   4  352.77   39.63   0
   3  -5   4  494.99   52.43   0
  -9  -8   1   38.94   28.86   0
  -8  -3   0  697.66   40.98   0
  -7  -4  -1  676.25   36.71   0
  -6  -9  -1  408.98   25.74   0
  -5  -6  -2 1602.74   39.61   0
  -4  -4  -2 3026.91   60.79   0
  -3  -5  -2 3476.71   62.33   0
  -2  -8  -1 1876.20   43.12   0
   0 -10   4   88.84   37.01   0
   0  -9   2  408.83   33.51   0
  -8  -8   0   -5.38   25.52   0
  -7  -7  -1  970.50   36.15   0
  -4  -6  -2 1046.44   33.72   0
  -4  -5  -2  353.48   25.20   0
  -3 -10   0   15.54   20.71   0
  -1 -10   2  462.27   33.17   0
   0  -8   1 1880.39   49.79   0
  -7  -6  -1  817.32   34.89   0
  -7  -5  -1   36.04   24.67   0
  -6 -11   1  316.66   30.45   0
  -6 -10   0  625.89   31.17   0
  -5  -9  -1  615.23   29.61   0
  -4  -9  -1  841.49   31.62   0
  -1  -6  -1 1320.74   41.70   0
   1  -9   5  571.26   44.33   0
   1  -6   1 2049.41   58.45   0
   2  -5   2  212.62   35.86   0
  -9  -7   1   59.16   28.49   0
  -8  -7   0  257.28   29.78   0
  -8  -4   0  148.73   32.38   0
  -6  -8  -1  895.05   32.22   0
  -5 -11   1   -1.98   26.01   0
  -5 -10   0    2.42   26.37   0
  -4 -10   0  692.11   31.65   0
  -2 -11   3  417.78   35.26   0
  -2  -9   0  658.34   29.97   0
  -1  -8   0 1163.35   36.48   0
  -1  -2  -1   51.65   23.69   0
  -1   3   1 4315.58  104.56   0
   0 -10   5  474.01   45.76   0
   1  -8   3  163.92   35.87   0
   2  -7   4   15.31   34.66   0
  -9  -6   1  400.41   36.31   0
  -9  -5   1  208.62   33.61   0
  -8  -9   1   14.34   28.55   0
  -7 -10   1  213.39   28.96   0
  -3  -8  -1  358.03   25.53   0
  -8  -6   0  486.90   31.76   0
  -8  -5   0   84.65   28.92   0
  -2  -7  -1   57.41   19.03   0
  -1  -5  -1  540.21   31.65   0
   0  -6   0 1691.32   48.13   0
   1  -7   2  838.67   41.04   0
  -6  -3  -1  323.22   30.26   0
  -5  -8  -1   30.27   20.44   0
  -4 -11   2   27.78   24.45   0
  -4  -8  -1 1316.02   35.49   0
  -2  -1  -1 1598.25   80.87   0
   0  -9   3    7.93   27.86   0
   2  -6   3    1.06   32.52   0
  -5 -11   2  514.52   32.49   0
  -4  -1  -1 1818.69   71.69   0
  -3 -10   1  489.62   27.80   0
  -3  -9   0  374.94   26.40   0
  -6 -10   1   53.57   23.29   0
  -1  -4  -1 5563.33   92.92   0
  -1  -3  -1 1321.72   53.98   0
  -9  -7   2  344.67   34.15   0
  -7  -9   1  479.00   31.38   0
  -7  -2   0  846.06   44.55   0
  -6  -4  -1  561.63   32.65   0
  -5 -10   1  766.11   35.06   0
  -5  -2  -1  123.49   28.25   0
  -4 -10   1  264.51   26.80   0
  -4  -9   0  449.55   27.95   0
  -3  -7  -1  934.69   30.91   0
  -1 -10   4  497.21   36.73   0
  -1  -7   0  122.72   21.37   0
  -7  -7   0  350.92   28.84   0
  -6  -5  -1 1135.58   36.90   0
  -5  -7  -1 1260.60   34.80   0
  -2  -9   1  175.32   23.27   0
  -2  -8   0   68.04   18.71   0
  -2  -6  -1 1447.82   40.43   0
  -1  -9   2  140.38   28.43   0
   0  -8   2   44.11   26.52   0
   1  -8   4  551.17   41.99   0
   2  -7   5  792.28   47.55   0
  -8  -7   1  257.46   29.35   0
  -8  -2   1  402.83   40.79   0
  -4  -7  -1   51.91   17.32   0
  -3  -1  -1 2473.71   87.43   0
   0  -9   4  602.98   37.43   0
   0  -5   0   33.20   20.07   0
   2   2   2  908.85   51.68   0
  -9  -6   2   35.66   28.19   0
  -6  -8   0   18.46   19.53   0
  -3 -10   2  318.13   25.50   0
  -1 -10   5    9.45   31.46   0
   2  -4   2  291.33   39.10   0
  -9  -5   2  240.49   35.95   0
  -7  -6   0  111.98   25.23   0
  -7  -3   0   17.62   27.32   0
  -6  -9   1  132.28   23.00   0
  -5  -6  -1  853.57   30.62   0
  -1 -10   6  400.39   42.50   0
  -9  -4   2  503.05   41.02   0
  -8  -8   2  113.36   27.40   0
  -8  -6   1   -5.93   25.49   0
  -5 -10   2  336.10   28.98   0
  -5  -8   0  655.33   30.01   0
  -5  -3  -1 1104.71   41.83   0
  -4 -10   2  372.30   27.72   0
  -3  -8   0 1925.50   42.03   0
  -3  -6  -1  811.07   29.96   0
  -2  -5  -1 1642.87   45.00   0
   0  -9   5  177.39   34.41   0
   1  -8   5  608.07   43.85   0
   4  -2   5    4.25   69.05   0
  -8  -3   1   76.95   31.11   0
  -7  -9   2   -0.98   24.80   0
  -7  -5   0  860.98   35.24   0
  -7  -4   0  695.06   35.36   0
  -7   0   1  938.38   57.91   0
  -5  -9   1  496.50   29.51   0
  -5  -5  -1   14.74   15.60   0
  -4  -8   0   11.15   19.89   0
  -2 -10   4   24.81   29.81   0
  -1  -9   3  520.26   34.01   0
   1  -7   3  318.29   32.18   0
   3  -4   4 1361.65   69.34   0
   4   0   4 1664.33   98.96   0
  -8  -5   1  525.02   34.14   0
  -8  -4   1  588.75   38.30   0
  -6  -7   0 1056.74   32.94   0
  -4  -9   1  290.89   25.44   0
  -2  -7   0 1433.04   38.35   0
  -1  -6   0 1111.07   38.26   0
   1  -6   2   11.14   24.07   0
  -6  -1   0  302.66   37.91   0
  -5 -10   3   65.96   27.43   0
  -2  -4  -1 1171.43   41.50   0
  -2  -2  -1 5100.15  107.09   0
   0  -9   6   94.68   38.06   0
   0  -8   3  481.43   33.05   0
   0  -4   0 3747.89   80.78   0
   2  -6   4 1063.15   50.37   0
  -9  -6   3  189.76   34.00   0
  -8  -7   2   52.28   26.14   0
  -4  -5  -1 2804.48   51.94   0
  -3  -5  -1   35.83   16.20   0
  -2 -10   5  330.30   34.57   0
  -2  -8   1  953.55   32.87   0
  -2  -3  -1 1700.63   54.05   0
   0  -9   7  300.36   45.02   0
   0   3   1 2099.41   69.87   0
   1  -8   6   49.28   35.97   0
  -7  -9   3  457.77   31.25   0
  -6  -8   1  672.19   28.86   0
  -5  -7   0  355.60   26.60   0
  -1  -9   4   48.77   28.29   0
   2  -5   3  537.02   41.86   0
  -4 -10   4   39.85   26.61   0
  -4  -4  -1  638.90   29.33   0
  -4  -3  -1  360.54   28.58   0
  -3  -9   2   77.57   21.60   0
  -3  -7   0  322.85   23.04   0
  -3  -4  -1 2434.81   54.37   0
  -3  -2  -1   12.61   21.06   0
  -1  -7   1 1583.58   41.55   0
   0  -7   2  470.82   30.20   0
  -9  -5   3  362.78   36.64   0
  -5  -9   2   58.95   24.28   0
  -4  -7   0 1202.83   34.52   0
  -8  -6   2  486.98   32.74   0
  -7  -6   1  999.33   36.31   0
  -5  -8   1   12.24   20.66   0
  -3  -8   1   88.86   22.06   0
  -3  -3  -1 2503.08   59.99   0
  -2   4   1   38.67   27.55   0
   0  -8   4  315.51   30.97   0
   1  -7   4  739.39   40.34   0
  -9  -4   3   35.81   31.68   0
  -6  -9   3   35.42   23.23   0
  -6  -2   0  344.23   32.28   0
  -4  -8   1 1409.53   38.07   0
  -2  -6   0 1249.47   37.00   0
  -1  -9   5  409.63   34.04   0
  -1  -5   0 3820.59   67.79   0
   0  -3   0 4071.27   95.54   0
   1   2   1   50.22   22.64   0
   3  -5   6    8.05   38.35   0
  -6  -7   1  657.63   28.40   0
  -5  -6   0  193.16   20.20   0
  -3  -9   3 1290.54   37.46   0
  -8  -5   2  409.87   31.67   0
  -8  -1   2   17.24   32.85   0
  -7  -8   3  199.88   27.29   0
  -7  -1   1   33.01   27.58   0
  -6  -8   2   70.40   19.72   0
  -6  -4   0 1017.66   35.70   0
  -6  -3   0 1719.89   47.53   0
  -5  -9   3  536.71   30.90   0
  -5   0   0    7.17   29.24   0
  -3   4   1 2225.51   81.84   0
  -2  -8   2  246.66   24.01   0
  -1  -9   6  290.99   32.79   0
   2  -6   5  445.41   39.71   0
  -7  -5   1  154.69   23.73   0
  -6  -9   4  363.44   29.75   0
  -4  -9   3   27.74   21.17   0
  -4   1   0 1051.01   86.67   0
  -3  -6   0  817.04   29.89   0
  -2  -7   1 1262.79   36.22   0
  -1  -9   7   25.02   34.35   0
   0  -8   5  120.81   30.38   0
  -9  -5   4   -2.33   29.28   0
  -8  -4   2   16.56   27.46   0
   1  -7   5   14.35   32.11   0
   1  -6   3 1689.26   50.54   0
   1  -5   2 1201.98   46.92   0
  -8  -7   4    4.75   27.51   0
  -8  -6   3  196.29   28.74   0
  -8  -3   2  477.97   35.71   0
  -8  -2   2  590.21   39.20   0
  -7  -4   1  126.90   25.25   0
  -7  -2   1  403.14   34.48   0
  -5  -9   4  100.62   25.58   0
  -5  -8   2  561.55   27.99   0
  -5  -7   1  484.78   26.96   0
  -5  -5   0 1419.91   37.84   0
  -3  -9   4   46.53   25.24   0
  -2  -9   5  118.18   29.22   0
   0  -5   1 2907.25   62.66   0
  -7  -8   4  129.41   27.37   0
  -7  -3   1  649.40   34.20   0
  -6  -8   3  413.42   26.05   0
  -6   1   1   98.84   40.85   0
  -4  -9   4  415.10   28.26   0
  -4  -8   2  301.77   25.73   0
  -3  -7   1 1078.41   33.45   0
  -1  -7   2 1502.64   39.70   0
  -1  -6   1  900.71   33.61   0
   0  -2   0 2518.65   92.16   0
  -9  -4   4  198.50   37.50   0
  -7  -6   2  138.54   23.58   0
  -2  -9   6  185.99   32.72   0
  -2  -5   0   10.75   16.47   0
  -1  -8   4  254.81   29.63   0
   0  -8   7   38.24   31.68   0
   1  -3   1 8474.27  144.96   0
   2  -6   6  123.58   36.13   0
  -6  -7   2  172.46   21.70   0
  -4  -9   5  305.31   28.51   0
  -2  -8   3 1123.68   35.18   0
  -1  -4   0 3657.48   71.31   0
   0  -8   8  224.69   40.20   0
   1  -7   6  577.21   42.36   0
   2  -5   4  723.81   44.87   0
  -9  -3   4  370.62   38.44   0
  -8  -5   3  157.96   28.29   0
  -5  -8   3  504.59   28.50   0
  -4  -5   0  545.26   26.16   0
   3  -4   5  369.82   43.74   0
  -8  -6   4  206.58   28.86   0
  -6  -8   4  522.89   27.93   0
  -5  -1   0 1045.01   48.35   0
  -3  -8   3  213.67   24.20   0
  -3  -5   0 2147.62   46.11   0
  -1  -8   5  515.16   33.42   0
   1  -7   7  123.73   37.42   0
  -7  -5   2  300.81   26.46   0
  -5  -7   2  716.04   29.33   0
  -5  -6   1 1108.75   33.13   0
  -4  -8   3  233.22   24.52   0
  -2  -7   2  557.18   26.77   0
   0  -7   4   17.18   25.54   0
   1  -7   8  133.53   38.56   0
   2  -4   3 1204.72   54.83   0
  -9  -4   5  132.07   34.78   0
  -8  -4   3  908.20   37.12   0
  -7   1   2    5.42   36.33   0
  -5  -2   0 1526.77   49.29   0
  -2  -6   1  175.38   20.47   0
   1  -6   4  428.78   33.10   0
  -6  -8   5   22.87   23.34   0
  -6  -7   3  805.50   29.40   0
  -6  -6   2  871.84   30.90   0
  -5  -8   4   79.22   23.34   0
  -4  -6   1   85.87   18.82   0
  -1  -8   6    7.36   29.68   0
   3  -3   4  768.63   60.59   0
  -6  -4   1 1231.38   37.67   0
  -4  -7   2  146.21   21.57   0
  -4  -4   0  148.37   18.90   0
  -3  -8   4  443.30   26.50   0
  -3  -7   2 1361.69   36.14   0
  -3  -6   1 3555.04   55.49   0
  -2  -4   0 5187.65   77.32   0
  -1  -8   7  573.73   38.93   0
  -1  -8   8   87.62   34.63   0
  -9  -3   5   -2.87   35.22   0
  -8  -3   3  417.31   36.63   0
  -7  -7   5   45.16   26.19   0
  -7  -4   2  979.35   35.83   0
  -4  -8   4  492.14   27.82   0
  -1  -5   1   83.28   20.05   0
   0  -7   5 1034.76   40.18   0
  -8  -2   3    0.48   29.68   0
  -6   0   1  555.99   43.40   0
  -5  -8   5  637.11   30.98   0
  -5  -5   1  329.75   23.51   0
  -3  -4   0  840.90   32.89   0
  -1  -6   2   16.99   16.33   0
  -1  -3   0   29.04   15.54   0
   0  -4   1 1551.72   50.31   0
  -8  -1   3  526.06   39.70   0
  -6  -7   4    4.47   19.16   0
  -6  -3   1   32.94   22.59   0
  -5  -7   3    0.56   19.60   0
  -4  -8   5   27.26   22.13   0
  -3  -8   5  730.92   30.66   0
  -2  -7   3 1654.68   40.91   0
   1  -5   3  483.16   34.02   0
   2  -5   5    1.36   31.83   0
  -7  -5   3  594.52   31.16   0
  -7  -3   2  322.78   27.98   0
  -5  -8   6   -9.10   25.53   0
  -5  -6   2   15.22   19.58   0
  -4  -3   0 4239.03   70.13   0
  -2  -8   7   37.26   31.21   0
  -2  -8   8  333.26   37.96   0
   0  -7   6  164.01   29.15   0
   1  -6   5  911.71   41.14   0
  -8  -5   5   11.18   25.65   0
  -8  -4   4   53.70   26.27   0
  -7   0   2  580.09   41.90   0
  -6  -6   3  242.19   23.02   0
  -6  -2   1 1014.46   40.00   0
  -4  -8   6  711.25   32.65   0
  -4  -7   3  647.89   29.57   0
  -3  -8   6  -10.55   25.34   0
  -3  -7   3  113.02   21.47   0
   0  -5   2 1700.98   47.41   0
   3  -4   6  458.08   45.86   0
   5   1   5  684.26   63.28   0
  -9  -3   6  308.76   39.72   0
  -7  -2   2   85.77   26.66   0
  -6  -7   5  415.08   26.34   0
  -6  -1   1 1419.13   49.64   0
  -4  -8   7   54.19   27.90   0
   0  -7   7  289.06   34.04   0
   0  -7   9   37.24   37.01   0
  -7  -1   2 1072.84   44.83   0
  -5  -7   4  658.50   28.90   0
  -4  -6   2 2655.05   47.02   0
  -4   0   0 4602.97  112.31   0
  -2  -5   1 2167.21   47.30   0
  -8  -5   6  223.57   32.97   0
  -8  -3   4  102.40   29.23   0
  -6  -7   6  203.75   27.18   0
  -5  -4   1  347.52   23.19   0
  -3  -6   2   63.87   18.59   0
  -3  -5   1  433.96   24.35   0
  -3  -3   0 1678.65   46.99   0
  -2  -7   4   19.38   20.73   0
  -1  -7   5    5.21   24.88   0
   1  -2   1   85.18   30.30   0
  -7  -5   4    8.23   22.49   0
  -7  -4   3   42.91   22.66   0
  -4  -7   4   10.18   19.58   0
   0  -6   4 1020.26   37.06   0
   2  -5   6  782.91   44.79   0
  -8  -4   5  232.17   29.48   0
  -6  -6   4  348.63   23.53   0
  -5  -7   5  120.88   24.08   0
  -3  -7   4  909.19   32.27   0
  -1  -7   6  830.49   38.02   0
  -1  -6   3 1748.14   41.94   0
   1  -6   7   56.12   33.47   0
  -8  -2   4  328.61   35.13   0
  -5  -5   2 1044.38   31.71   0
  -1  -2   0 5661.96  112.97   0
   1  -6   9   36.80   36.21   0
  -5  -7   6  489.55   30.92   0
  -4  -7   5  745.80   30.63   0
  -2  -7   5  774.41   31.36   0
  -1  -7   7  661.93   37.12   0
  -1  -7   8  145.76   33.58   0
  -1  -4   1  392.58   26.39   0
   1  -5   4  315.55   30.41   0
   2  -4   4   27.08   27.82   0
   3  -4   7  600.60   46.54   0
  -8  -4   6  294.39   32.26   0
  -7  -3   3  368.60   27.94   0
  -6  -6   5  401.84   25.42   0
  -5  -7   7  358.04   31.03   0
  -4  -6   3  356.28   24.58   0
  -4  -4   1 1696.49   42.03   0
  -3  -7   5   34.95   21.24   0
  -1  -5   2 1323.40   39.55   0
   2  -5   7  134.88   34.48   0
  -8  -3   5  547.05   33.43   0
  -8  -1   4  388.22   36.92   0
  -4  -7   6  172.17   26.05   0
  -3  -2   0 3915.79   77.85   0
  -2  -6   3   68.02   17.92   0
   0  -6   5  825.29   37.12   0
   2   2   1 5339.26  105.79   0
  -8   0   4    9.89   30.52   0
  -7  -4   4  646.62   32.34   0
  -6  -3   2 1226.25   37.24   0
  -5  -6   4  355.64   23.71   0
  -4  -7   7  153.47   27.47   0
  -4  -5   2 1740.63   39.74   0
  -3  -7   6  483.22   27.89   0
  -3  -6   3 1097.34   32.84   0
  -2  -7   8  616.44   38.70   0
  -2  -7   9   25.87   33.11   0
   0  -3   1  205.22   26.50   0
   2  -5   8  497.33   42.64   0
  -6  -6   6   51.89   20.21   0
  -4  -7   8  299.08   31.73   0
  -3  -7   7  294.29   26.72   0
  -3  -4   1  681.31   30.28   0
  -2  -4   1 3873.61   65.61   0
  -2  -2   0 1762.46   56.86   0
   2  -3   3  187.45   34.53   0
  -7  -2   3  656.46   34.07   0
  -6  -5   4  881.02   30.39   0
  -2  -5   2  114.37   18.63   0
   0  -6   6  364.56   31.33   0
  -8  -3   6   37.57   26.57   0
  -8  -2   5  100.80   29.78   0
  -5  -6   5  228.00   22.40   0
  -5  -5   3 1232.93   34.34   0
  -5  -4   2  891.74   30.26   0
  -4  -6   4  402.91   25.07   0
  -3  -5   2 1664.97   39.74   0
   0  -6  10  161.25   35.83   0
   0  -4   2  236.43   24.17   0
  -6  -2   2 1755.07   46.28   0
  -3  -1   0 4849.31  101.07   0
  -2  -6   4  899.00   31.44   0
   0  -6   9  578.99   37.76   0
   1  -5   5 2088.46   53.03   0
  -7  -4   5  314.23   26.89   0
  -7  -3   4  557.60   30.69   0
  -7  -1   3  222.70   30.15   0
  -3  -6   4  580.17   28.14   0
   0  -6   8   20.23   29.14   0
  -6  -5   5   66.18   19.18   0
  -5  -6   6  611.80   29.49   0
  -5  -6   7    1.75   23.17   0
  -5  -6   8  496.20   33.91   0
  -4  -6   5  473.57   26.76   0
  -4  -5   3  783.05   27.97   0
  -1  -5   3 1439.26   39.17   0
   0  -6   4  984.00   32.63   0
   0  -4  -1  187.05   28.24   0
   2  -9   4  769.49   43.54   0
   1  -8   3  201.40   28.93   0
   1  -7   6  584.13   33.78   0
   1  -6  -3   22.72   29.65   0
   1  -2  12  395.83   29.51   0
   1   0  13  366.94   32.29   0
   1   5  13  307.40   33.81   0
   1   6  12  658.31   43.13   0
   2  -9  -2    5.52   27.49   0
   3 -10   3  282.89   41.05   0
   0  -6   2 2178.57   47.10   0
   0  -6   3  524.42   26.81   0
   0  -3  -1 1964.14   81.73   0
   0   3  10 1413.54   42.90   0
   1  -8   0 1968.36   51.61   0
   1  -8   2  906.43   39.27   0
   1  -5   9  314.53   31.75   0
   1  -3  11  409.60   30.95   0
   0  -4   7  310.82   24.54   0
   0   4   6 1263.44   67.01   0
   1  -8   1   28.29   24.36   0
   1  -7  -2  111.76   29.62   0
   1  -4  10   40.69   26.73   0
   2  -9   3   11.38   31.53   0
   2  -8   6  499.23   39.23   0
   3 -10   2   33.04   37.22   0
   0  -5   0   29.32   19.69   0
   0  -5   5  302.25   23.25   0
   0  -3   8  180.09   24.25   0
   0   4   8   36.85   24.29   0
   1  -6   7   49.14   24.91   0
   1   1  -2  174.83   20.23   0
   1   1  13  528.79   32.77   0
   1   4  13 1184.53   45.77   0
   2  -9  -1  937.81   47.11   0
   2   2  15  446.05   38.20   0
   3 -10   0    8.97   35.85   0
   3 -10   1  633.75   45.42   0
   0   2  10  332.67   25.83   0
   0   4   7 2247.48   71.92   0
   1   2  13    2.54   26.70   0
   1   3  13  362.15   30.91   0
   2  -6   9  538.46   39.36   0
   2   3  15  503.62   37.69   0
   2   5  15  215.76   38.37   0
   3  -9   5  386.17   42.61   0
   2  -9   0  521.21   39.83   0
   2  -9   1  210.87   33.53   0
   2  -8   5  216.44   35.47   0
   2   4  15   39.55   33.51   0
   0  -4   6  266.94   22.69   0
   0  -1   9  187.20   21.98   0
   0   3   9  542.25   32.38   0
   1  -5   8  171.26   29.12   0
   1  -2  11   71.10   23.22   0
   0  -5   1 2884.64   59.03   0
   0  -5   3  861.13   32.78   0
   0  -2   8  396.17   25.06   0
   1  -6   6 1100.53   38.89   0
   1  -3  10  280.54   28.52   0
   1   5  12 1087.16   46.46   0
   2  -8  -3  563.80   46.34   0
   3  -9   4    5.13   34.62   0
   0  -5   2 1710.77   43.78   0
   0   0   9  714.85   29.01   0
   1  -7  -1  692.78   38.00   0
   1   6  11  788.49   43.72   0
   2   1  14  708.07   40.23   0
   0  -4   0 3770.22   80.65   0
   0  -4   5 2084.08   44.68   0
   1   1  12  287.99   29.78   0
   2  -8   4  335.41   34.40   0
   2  -6   8    7.40   26.02   0
   3  -8   6   38.60   37.03   0
   1  -5   7  560.65   31.69   0
   1  -1  11  293.55   25.26   0
   1   4  12  289.23   31.43   0
   2  -2  12   73.71   29.12   0
   2   2  14   88.04   31.06   0
   2   6  14   15.63   33.39   0
   3  -9   3  558.99   40.77   0
   0  -3   6    0.44   17.00   0
   1  -7   0  220.62   27.33   0
   1  -6   5  927.83   35.53   0
   1   2  12  779.73   36.41   0
   1   3  12  398.77   31.79   0
   2  -7  -4  895.09   67.62   0
   2  -4  10  636.42   39.63   0
   2  -3  11  137.57   33.06   0
   3  -9  -3  107.78   37.70   0
   0  -4   4  111.99   19.13   0
   0  -2   7  696.66   29.09   0
   1  -4   8   25.86   26.04   0
   1  -3   9  459.46   30.32   0
   1   0  -3 2807.52   66.22   0
   2  -8   3  517.86   35.30   0
   2   3  14  231.55   32.07   0
   2   5  14  303.73   38.45   0
   2  -8  -2  572.59   43.38   0
   2  -6   7  524.66   34.48   0
   2   4  14  578.21   39.23   0
   3  -9   2  182.59   35.28   0
   4  -9   4  245.62   44.20   0
   0  -4   1 1534.98   47.37   0
   0  -4   3 2460.24   51.77   0
   0   1   8  229.75   22.28   0
   1   6   3  418.16   35.96   0
   2  -8   2  227.77   32.54   0
   0  -4   2  259.42   23.35   0
   0  -3   5 1787.30   42.74   0
   0  -1   7   17.00   16.71   0
   1  -6   4  412.45   28.79   0
   1  -5   6  122.15   24.86   0
   1   5  11  331.84   34.49   0
   1   6  10  327.50   38.81   0
   2  -1  12   49.60   28.89   0
   3  -9   1  518.96   44.40   0
   0  -3   0 4056.66   94.28   0
   0  -2   6  657.84   29.12   0
   1  -5  -3 1267.54   80.16   0
   1  -1  10  484.54   29.20   0
   2  -8  -1  501.60   40.16   0
   2  -8   1 1352.68   47.74   0
   3  -9  -1   27.49   34.91   0
   3  -9   0  673.68   44.68   0
   3   3  15   11.18   35.15   0
   4  -9   3   82.31   41.53   0
   1  -4   7  797.28   34.25   0
   1  -2   9  157.15   24.59   0
   2  -8   0  180.92   29.16   0
   2  -4   9   15.48   29.10   0
   2  -2  11  580.05   33.65   0
   3  -8   4  258.10   38.59   0
   3   4  15  239.16   38.83   0
   0  -3   4 1091.26   36.20   0
   0   0   7 1361.99   38.85   0
   1  -6   3 1774.14   44.74   0
   1  -3   8  613.23   31.93   0
   1   2  11  182.67   27.47   0
   1   4  11  750.11   37.01   0
   2  -6   6  132.93   28.08   0
   2   2  13  605.92   36.98   0
   3  -5   9  195.80   36.70   0
   3   1  14   10.76   35.50   0
   3   5  15  293.00   43.64   0
   1  -5   5 2064.39   47.62   0
   1   3  11 1366.63   43.07   0
   2  -4  -6  213.81   39.63   0
   2   6  13  461.39   40.80   0
   3  -4  10   21.61   38.24   0
   3  -3  11  271.33   39.52   0
   4  -8   5  172.21   41.49   0
   0  -3   3 1832.53   47.54   0
   0  -2   5  412.45   25.18   0
   0  -1   6 1113.78   36.13   0
   0   1   7 1506.92   42.28   0
   1   0  10  431.08   27.45   0
   2   3  13  346.05   34.78   0
   4  -9   2  401.67   43.52   0
   0  -3   1  214.90   23.96   0
   2  -5   7  154.12   28.39   0
   2   4  13   57.05   31.09   0
   2   5  13  823.08   44.26   0
   3  -8   3  122.19   36.36   0
   3   2  14  636.82   41.79   0
   0  -3   2 5656.75   86.33   0
   1  -1   9 1561.41   40.72   0
   3  -6  -7 1088.40   84.99   0
   3  -6   7   92.22   33.40   0
   0  -2   0 2439.68   90.05   0
   0  -2   4 2851.38   57.73   0
   0   0   6   49.54   16.81   0
   1  -5   4  350.22   25.61   0
   1  -3   7   -6.11   20.64   0
   1   5  10 1475.36   52.29   0
   2  -4   8  899.83   39.80   0
   2  -2  10   13.25   25.39   0
   3  -8  -4  161.76   45.23   0
   3  -7   5   28.89   31.34   0
   4  -9   1  322.40   43.67   0
   0  -1   5 1725.71   45.69   0
   0   2   6 2374.86   62.65   0
   1  -2   8 1078.31   36.24   0
   3  -8   2  644.41   41.93   0
   3  -5   8  174.79   31.53   0
   3  -1  12  411.42   33.93   0
   4  -8   4  143.79   40.25   0
   4  -7   6  121.29   42.00   0
   0   1   6 1169.77   41.22   0
   1  -1  -4  143.31   23.14   0
   2  -7  -3  968.21   56.57   0
   2  -7   2  774.08   39.89   0
   3   3  14  459.86   38.50   0
   4  -9   0  160.40   42.71   0
   5  -9   2   32.04   46.63   0
   0  -2   3  690.02   33.15   0
   2   2  12   83.43   27.84   0
   3  -4   9  505.25   37.41   0
   3  -3  10  206.95   33.85   0
   3  -2  11    9.45   29.58   0
   3   1  13  508.38   38.03   0
   4  -9  -1  621.33   48.32   0
   1  -5   3  479.64   27.82   0
   1  -4   5   93.40   20.77   0
   1   0   9  544.95   28.07   0
   1   3  10   14.48   23.06   0
   2  -5   6  785.33   36.45   0
   2   0  11   28.28   22.54   0
   3  -8   1    5.34   32.57   0
   3   4  14   14.25   30.17   0
   0  -2   1 2255.02   69.82   0
   0  -2   2 2280.32   61.17   0
   0   0   5 6102.50   88.10   0
   2  -7   1  587.91   35.35   0
   2  -6   4 1112.74   39.08   0
   3  -7   4  844.80   41.91   0
   3   5  14  410.32   39.82   0
   3   6  14  424.11   44.41   0
   5  -9   1  232.30   49.29   0
   5  -8   4  351.86   49.45   0
   0  -1   4  904.72   35.91   0
   0   2   5  520.79   37.09   0
   1  -1   8   45.91   19.25   0
   2  -7  -2  822.32   47.82   0
   2  -4   7  240.14   28.94   0
   2   3  12  673.58   35.94   0
   2   6  12  920.25   46.46   0
   4   4  15  127.37   38.56   0
   0   1   5  120.43   21.61   0
   1  -5   2 1208.14   39.99   0
   1  -2   7  536.55   28.48   0
   2  -7  -1   15.84   28.38   0
   2  -3   8   50.14   27.56   0
   3  -8  -3  442.68   43.44   0
   3  -8   0  722.63   43.34   0
   3  -5   7  717.92   37.81   0
   3   0  12   35.00   28.93   0
   3   2  13    7.67   30.66   0
   1   1   9   35.82   17.90   0
   2   4  12  838.17   39.67   0
   2   5  12    5.14   29.56   0
   3  -8  -1  541.40   43.82   0
   4  -5   8  364.63   37.59   0
   4   2  14   17.98   36.94   0
   4   5  15   56.43   38.85   0
   0  -1   3 3030.20   68.90   0
   1  -4   4 2487.46   51.67   0
   2  -5   5   15.02   22.49   0
   3  -8  -2  213.96   37.48   0
   3  -7   3  169.48   33.71   0
   3  -4   8  157.66   32.75   0
   4  -8   2   15.08   36.10   0
   4   6  15  509.40   47.53   0
   0   0   4 1930.95   55.53   0
   1  -5   1  705.89   35.21   0
   1   5   9  340.62   34.92   0
   4  -4   9   -3.39   35.24   0
   4  -2  11  392.35   39.03   0
   5  -8   3   69.09   41.41   0
   1   0   8 1131.23   35.90   0
   3   3  13  344.55   35.31   0
   4  -3  10  259.04   40.27   0
   0  -1   2  220.86   26.56   0
   0   2   4 4108.80  108.02   0
   1  -3   5 1095.54   36.43   0
   4  -7   4   37.84   36.31   0
   4   3  14   74.42   36.05   0
   5  -7   5   -1.28   38.36   0
   0  -1   1 3777.97  108.40   0
   0   1   4 2003.73   63.35   0
   1  -4   3    1.04   17.22   0
   1  -2   6  404.73   25.69   0
   1   4   9  323.99   29.81   0
   1   6   8  484.04   48.35   0
   3   4  13  516.68   38.43   0
   4  -8   1  721.00   46.53   0
   2  -1   9   39.07   23.39   0
   3  -7   2  644.49   37.96   0
   3  -5   6   -1.11   24.67   0
   0   0   3  959.38   45.70   0
   2   3  11  248.80   30.44   0
   3   5  13   69.97   33.56   0
   3   7  13  521.27   42.81   0
   4  -5   7   38.77   27.56   0
   4   0  12  832.71   43.72   0
   2   1  10  110.84   24.14   0
   3  -4   7  612.61   36.30   0
   3   2  12  752.18   38.22   0
   3   6  13  213.51   36.38   0
   5  -6   6  393.51   45.13   0
   0   2   3 1992.35  106.02   0
   2   4  11  416.72   32.02   0
   2   6  11  170.26   33.17   0
   2   8  10  118.12   44.66   0
   3  -1  10  219.12   29.67   0
   4  -8   0  123.59   39.30   0
   4  -7   3  537.60   41.46   0
   4  -4   8  474.55   37.65   0
   4  -1  11  344.66   35.34   0
   0   1   3   89.11   24.50   0
   1  -4   2 1491.23   44.30   0
   1  -3   4 1283.92   38.49   0
   2   5  11 1224.53   45.48   0
   4  -3   9  509.19   38.46   0
   4  -2  10   14.47   32.12   0
   4   5  14  242.24   34.85   0
   6  -8   2   14.60   46.03   0
   0   0   2 3047.05   95.44   0
   1   0   7  113.75   19.15   0
   5  -8   1   29.52   39.22   0
   5   6  15   28.51   42.58   0
   1  -2   5  973.45   34.72   0
   1  -1   6  164.49   20.80   0
   2  -6  -4  467.44   56.92   0
   2  -5   3  541.48   30.07   0
   3  -5   5 1138.05   40.92   0
   3   3  12   51.37   28.29   0
   4  -8  -1  478.92   45.34   0
   4   6  14   76.21   38.42   0
   4   7  14  679.80   49.63   0
   3  -7   0   -3.43   29.27   0
   4  -5   6 1422.25   45.90   0
   4   3  13  278.53   37.44   0
   1  -4   1 2380.93   59.07   0
   3  -7  -5   12.24   46.07   0
   4  -8  -2  704.93   47.49   0
   5  -4   8  141.70   36.52   0
   3  -4   6  459.01   33.95   0
   3   0  10   63.73   24.41   0
   4  -8  -3  101.97   38.07   0
   5  -8   0  535.37   48.39   0
   5  -3   9  177.09   38.52   0
   5  -1  11  410.94   39.78   0
   1  -3  -5    9.29   25.06   0
   1  -3   3 1724.33   47.28   0
   1   1   7 1789.14   46.21   0
   2  -6  -1 1777.17   57.63   0
   3   4  12  299.93   31.88   0
   4  -4   7  419.86   34.61   0
   4   0  11   23.14   25.48   0
   5  -2  10  432.68   44.12   0
   5   2  13   -4.06   35.87   0
   5   4  14   12.87   36.77   0
   2  -4   4   32.54   19.97   0
   2   3  10 1484.49   43.41   0
   3  -7  -1 1786.73   56.72   0
   3  -3   7    8.90   26.22   0
   3   8  12  859.26   51.52   0
   4  -3   8  123.11   33.02   0
   4   4  13   94.26   33.27   0
   0   1   2 3017.47  133.04   0
   1  -4   0  922.08   45.34   0
   2  -6  -2  117.46   30.06   0
   2  -5   2  218.40   23.80   0
   3  -6   2  206.50   31.37   0
   3  -5   4  525.84   32.85   0
   3   5  12  858.84   42.00   0
   6  -6   5  183.97   43.26   0
   1  -2   4  127.91   20.90   0
   2   7  10  387.32   40.79   0
   3  -7  -2   68.46   34.89   0
   4  -7   1  138.47   32.53   0
   5  -8  -1  392.72   45.74   0
   6  -8   0  203.54   47.33   0
   1  -1   5 2256.61   52.05   0
   2   4  10  282.18   29.79   0
   3  -7  -4  530.75   50.56   0
   3   6  12  334.67   37.63   0
   3   7  12   87.92   34.91   0
   4  -5   5  163.49   31.54   0
   5   1  12  329.18   40.01   0
   5   5  14  219.22   37.81   0
   1   2   7 2405.39   56.66   0
   3  -7  -3 1318.62   60.94   0
   3   1  10  747.26   34.98   0
   4  -6   3    6.02   31.38   0
   4   5  13  722.90   41.76   0
   5  -6   4  101.85   34.78   0
   5   3  13  399.18   41.56   0
   1  -3   2   41.30   18.71   0
   2  -1   7   43.29   20.52   0
   2   5  10  341.70   31.73   0
   2   6  10 2201.64   63.85   0
   3  -4   5  405.35   31.59   0
   3   3  11 1257.45   43.92   0
   5  -8  -2  241.49   42.61   0
   5   0  11  438.40   36.79   0
   1   6   7  318.66   47.60   0
   4  -4   6  304.48   31.74   0
   4   3  12  861.23   41.28   0
   4   6  13  611.15   43.66   0
   5  -1  10  108.08   34.49   0
   5   6  14  390.31   40.55   0
   6  -7   2  248.05   43.05   0
   4  -7   0  861.29   46.78   0
   5  -2   9  121.96   34.93   0
   4  -3   7 1170.32   43.21   0
   4   7  13   47.84   37.34   0
   5  -7   1  463.72   43.34   0
   5   7  14   71.02   39.44   0
   6  -4   7  266.00   43.47   0
   7  -7   2   48.76   43.54   0
   1   1   6 1910.22   51.06   0
   3   4  11  337.84   33.49   0
   4  -1   9   51.99   29.15   0
   1  -2   3 2384.77   57.74   0
   2   1   8  343.46   25.34   0
   6  -3   8   12.89   35.70   0
   0   1  -2  235.25   23.72   0
   4  -7  -1   31.68   36.47   0
   4   4  12  610.10   38.62   0
   1   0   5   90.95   20.35   0
   1   4   7  279.90   32.30   0
   3  -6   0  954.12   45.29   0
   3  -4   4 1402.95   44.24   0
   5  -4   6  713.71   38.29   0
   5   1  11   54.24   27.63   0
   6  -7   1  127.39   37.25   0
   6  -5   5   41.47   37.40   0
   2  -2   5  106.75   21.10   0
   3   5  11   22.07   27.27   0
   5   5  13   55.81   33.79   0
   6  -6   3   -5.62   38.83   0
   6   6  14   80.04   40.33   0
   7  -7   1  404.57   51.92   0
   2  -4   2  299.83   25.95   0
   3   1   9    1.94   22.58   0
   4  -4   5 1023.61   41.38   0
   4   1  10   49.32   27.01   0
   5  -7   0   40.26   36.64   0
   5  -3   7    0.56   29.33   0
   5   0  10  127.10   31.20   0
   5   3  12  106.98   34.47   0
   7  -6   3  521.29   48.36   0
   3   6  11 1067.20   48.12   0
   3   8  11   10.75   35.84   0
   4   5  12   10.06   29.61   0
   5  -1   9 1021.98   46.86   0
   6   4  13   29.09   37.57   0
   1   2   6   10.37   20.22   0
   3  -3   5  121.76   24.21   0
   3   7  11 1489.84   57.05   0
   4  -3   6   51.36   28.02   0
   5  -6   2    3.72   34.03   0
   6   7  14  301.83   47.26   0
   3  -2   6  306.21   28.59   0
   4  -6   1  111.03   34.08   0
   4   0   9  326.58   32.33   0
   5   6  13  288.90   36.46   0
   3  -6  -1  262.90   35.79   0
   4  -2   7  313.56   32.44   0
   4  -1   8  989.75   41.29   0
   4   6  12  439.94   40.01   0
   6   0  10  460.56   41.52   0
   7  -7   0   36.40   47.76   0
   1  -2   2 2962.09   70.58   0
   2  -3   3  186.39   24.27   0
   5  -4   5   55.34   29.85   0
   5   4  12  306.97   38.47   0
   6  -1   9    6.74   36.33   0
   2   6   9  211.99   35.33   0
   3  -4   3  101.27   25.22   0
   4  -7  -3  321.16   43.95   0
   4   7  12 1039.13   52.10   0
   1  -3   0 2651.45   78.40   0
   1   1   5 5089.59   88.67   0
   3   2   9 1496.00   44.35   0
   3   4  10  739.35   38.74   0
   4  -4   4    4.34   28.26   0
   4   2  10  660.25   34.50   0
   5   1  10  606.19   37.54   0
   5   8  13  224.78   45.39   0
   7  -6   2   40.74   40.13   0
   2  -4   1 3550.70   73.00   0
   1  -1   3   56.62   19.91   0
   2  -2   4 2315.94   54.13   0
   2   0   6   -2.88   19.13   0
   5  -5   3  376.06   37.82   0
   5   0   9  538.03   37.72   0
   1   0   4 4638.86   85.12   0
   3  -3   4  832.41   36.89   0
   4   1   9  849.35   37.60   0
   5  -2   7  476.02   36.38   0
   5  -1   8   12.08   33.37   0
   1  -1   2 5481.34  100.64   0
   2  -1  13  416.69   38.71   0
   3   0  10   79.46   25.91   0
   5   8  13  199.41   25.21   0
   5   9  13  188.23   23.30   0
   2  -2   9 1137.28   42.56   0
   3   0  11  973.33   38.17   0
   3   1  14   16.70   27.42   0
   3   4   4   95.67   17.55   0
   3   5   4  303.25   23.11   0
   4   3   8 1396.94   35.82   0
   4   4   7 2154.72   42.70   0
   4  11   9  558.94   38.53   0
   5   7  12   62.82   22.53   0
   5   7  13  853.29   33.06   0
   5   8  12  653.29   28.16   0
   5   9  12  496.63   29.42   0
  -3  -6   2   62.69   32.20   0
   1   1   1 4595.15  107.31   0
   2  -2   7  318.04   29.81   0
   4   3  14   96.85   24.71   0
   4  10   8  312.88   31.02   0
   5   8  11   12.52   19.78   0
  -1   2  -1   62.33   28.73   0
   2  -2  10   13.06   30.69   0
   3   0  12   41.59   27.47   0
   3   3   4 2491.88   50.52   0
   4  13  11   -4.56   36.06   0
   5   6  12  268.29   27.96   0
   5   6  13  276.28   26.19   0
   4   2   9  317.90   24.24   0
   4   2  12   92.39   25.56   0
   5   6  11  644.67   31.54   0
   5   7  10  505.94   28.09   0
   5  10  11  725.88   35.20   0
  -1   1  -1  150.97   30.61   0
   2  -2  11  658.90   41.92   0
   3   1   5 1960.10   43.20   0
   4   3   7 1140.51   32.23   0
   4   5   6 1915.41   41.99   0
   4   6   6  539.18   26.49   0
   5   6  10    7.02   20.75   0
   5  11  12  427.23   31.62   0
  -2  -2  -1 4997.10   93.99   0
   2  -2   6 3502.33   63.22   0
   2  -1   4  490.79   29.85   0
   2   3   2 3557.46   73.57   0
   2   4   2 3862.76   79.49   0
   3   9   5  210.36   30.22   0
   4   2   8 1985.61   42.05   0
   4   2  13  687.14   35.12   0
   5   5  11   72.47   23.72   0
   5   5  12  754.26   31.66   0
   5   5  13   48.97   21.49   0
   2   0   3 1592.33   45.02   0
   3   0   6 1902.65   43.21   0
   3   7   4  545.06   34.58   0
   4   4   6  370.83   24.08   0
   4  12   9  180.66   38.76   0
   5   5  10  433.62   28.24   0
   5   7   9  183.42   22.68   0
   5  11  11  123.88   30.33   0
   2  -2  12   63.49   34.24   0
   2  11   5  282.50   49.95   0
   3   2   4 2030.60   45.63   0
   4   2  14   42.58   26.00   0
   4  11   8   34.96   32.61   0
   5   6   9  724.88   31.19   0
   5   8   9  106.81   22.65   0
   5  12  12  349.04   31.99   0
   2   2   2  928.08   39.63   0
   3   0  14  265.50   35.01   0
   4   2   7    8.41   19.14   0
   4   8   6 1999.23   48.16   0
   5   4  11  336.47   27.35   0
   5   4  12  280.41   24.14   0
   2   8   3 1034.34   55.95   0
   3  -1   9  876.78   37.15   0
   3  12   7  913.77   54.15   0
   4   3   6  576.49   25.94   0
   4  10   7 1306.76   47.03   0
   5   4  10  845.77   33.54   0
   5   4  13  720.86   33.00   0
   5   5   9  350.65   26.05   0
   3  -1   8  259.01   26.39   0
   3  -1  11  441.67   36.60   0
   3  11   6  308.44   42.68   0
   4   1  12  218.76   30.40   0
   0  -5   7  203.66   39.18   0
   1  -4   8   -0.06   31.51   0
   5   6   8  552.25   28.67   0
   5   7   8 1676.95   40.40   0
   5  12  11  214.26   31.92   0
   1  -4   7  797.80   43.13   0
   3   0   5  339.36   23.37   0
   4   1   8  291.65   23.13   0
   4   1  13  168.90   30.34   0
   5   4   9  180.59   23.41   0
   5   5   8  269.06   24.45   0
   5  10   9  271.91   29.29   0
   5  13  12   15.26   32.09   0
   3   1   4   60.03   16.93   0
   3   8   4  249.05   31.86   0
   4   5   5  142.54   18.98   0
   4   6   5  727.62   30.53   0
   4   9   6  590.63   36.58   0
   5   3  11  730.00   30.22   0
  -2  -5   2  105.25   40.75   0
   2  10   4  158.98   47.20   0
   4   2   6 1810.33   40.65   0
   4   4   5  341.00   23.11   0
   5   3  10   85.54   21.38   0
   5   9   8   59.05   27.18   0
   6   8  12   64.24   20.56   0
   6   9  12  180.80   26.97   0
  -3  -6   3 1077.15   63.67   0
   0  -5   6 1070.95   57.39   0
   3  -1  13   20.64   33.90   0
   3   4   3 3066.00   59.55   0
   3  10   5  135.21   36.34   0
   4   1   7  326.73   23.11   0
   4  12   8  718.22   50.35   0
   5   4   8 1691.64   39.88   0
   5  12  10  126.42   33.48   0
   6   7  12  589.47   30.46   0
  -2  -1  -1 1657.00   53.16   0
   1  -4   6 1207.30   49.78   0
   2   1   2 4723.38   80.64   0
   2   6   2  936.42   51.82   0
   3   3   3 2993.08   57.97   0
   3   5   3  624.32   33.61   0
   4   3   5 3230.30   53.07   0
   4  11   7  406.74   43.07   0
   5   3   9  780.07   31.56   0
   5   6   7  627.95   28.42   0
   5  11   9   45.75   31.27   0
   5  13  11  363.38   45.39   0
   6   8  11  606.51   29.04   0
   1   0   1 4009.89   98.82   0
   4   0   9  389.47   30.74   0
   4   0  10  636.32   33.11   0
   4   0  11    3.87   28.41   0
   5   5   7 1255.37   35.22   0
   5   7   7    6.80   19.79   0
   6   6  12  504.65   30.79   0
   6   7  11  379.98   27.07   0
   5   3   8  673.35   30.34   0
   5  10   8  616.28   36.43   0
   6   6  11  113.34   24.52   0
   6  10  11   47.14   27.74   0
   6  11  12   98.22   26.63   0
   2  -1   3 2297.93   54.26   0
   5   2  10  374.45   27.54   0
   5   2  12  518.48   31.90   0
   5   4   7  283.51   22.83   0
   6   7  10  215.04   24.53   0
   6   8  10   93.93   21.87   0
  -2  -3   0 2332.64   71.36   0
   3  -2   9  237.36   32.18   0
   3   2   3 1338.17   39.91   0
   4   0  13   32.01   29.03   0
   4   1   6  564.27   26.30   0
   4   8   5   21.06   23.65   0
   4  10   6   16.08   32.46   0
   5   2  13    4.76   25.52   0
   6   5  12   12.88   21.97   0
   6   6  10 1026.91   35.76   0
   3  -2   8  412.61   33.36   0
   3  -2  11   11.18   34.23   0
   3   0   4  994.97   34.38   0
   5   2   9  950.89   32.90   0
   6   5  11  683.79   31.46   0
   6  11  11  386.65   33.54   0
  -2   0  -1  602.22   33.19   0
   0  -5   5  320.84   44.42   0
   1  -4   5   98.59   30.93   0
   5  12   9  423.65   44.35   0
   5  13  10  113.44   43.46   0
   6   5  10  181.72   26.30   0
   6  10  10  267.77   31.71   0
  -2   1  -1 3878.46   78.14   0
  -1   5   0 2618.04   89.77   0
   3   9   4 1269.53   58.09   0
   5   2   8    7.49   19.94   0
   5   3   7  402.80   24.78   0
   5  11   8  414.39   40.53   0
   6   4  12  499.84   28.22   0
   6   6   9   33.73   22.53   0
   6   7   9  747.30   31.03   0
   6   8   9  936.69   36.05   0
   4   5   4 1564.68   41.30   0
   5   5   6  117.96   19.85   0
   6   4  11  316.12   26.93   0
   2   0   2  623.01   32.11   0
   3   7   3  816.75   43.35   0
   5   1  11   69.09   26.42   0
   5   1  12  343.71   32.38   0
   5   4   6 1127.66   33.97   0
   6   4  10  112.40   24.86   0
   6   5   9  484.56   31.30   0
   6  11  10    2.84   29.69   0
   6  12  11  142.97   32.16   0
  -2  -4   1 3860.40  100.72   0
   3   1   3 5311.52   74.10   0
   4  -1  11  383.60   35.24   0
   4   1   5  235.76   21.29   0
   4   3   4   16.78   16.67   0
   4   9   5  777.79   42.30   0
   4  12   7    4.89   43.58   0
   5   1  13  230.05   32.31   0
   5  10   7   91.88   32.72   0
   2   9   3 2116.30   90.63   0
   4  -1   9   73.37   26.51   0
   4   0   6   52.30   18.13   0
   5   2   7 1898.42   43.44   0
   5   8   6   17.99   23.12   0
   6   7   8   59.25   21.60   0
   6  10   9  431.87   34.76   0
   3  -2   6  316.81   27.02   0
   4  -1  12  298.07   37.46   0
   6   3  11   22.43   23.11   0
   6   4   9  976.44   35.49   0
   6   6   8  855.98   33.19   0
   3  11   5  963.45   64.78   0
   4   7   4 1093.43   42.25   0
   4  11   6  487.77   48.48   0
   5   1   8 1748.87   42.19   0
   6   5   8  703.81   31.94   0
  -1   7   1  683.47   59.82   0
   4   2   4 1562.15   39.23   0
   6   3  10  465.29   27.72   0
   6   9   8  885.67   38.56   0
   6  12  10  202.17   33.91   0
   6  13  11    4.01   35.28   0
   3  -1   4 1605.62   42.34   0
   4  -1   7  365.63   27.36   0
   5   9   6  438.23   36.48   0
   5  12   8   34.78   41.93   0
   6   4   8   27.69   22.77   0
   6  11   9  624.46   39.81   0
   7   7  11  397.72   29.99   0
   7   8  11   -4.28   21.60   0
   5   2   6  135.02   20.84   0
   5   6   5   13.07   20.37   0
   6   3   9  236.98   26.61   0
   7  10  11  326.97   32.72   0
   3  -3   9  207.67   35.90   0
   3   0   3 1076.59   36.55   0
   4   0   5 1940.12   43.72   0
   5   0  10  118.91   30.00   0
   5   0  11  489.29   34.65   0
   5   0  12   -4.03   28.20   0
   5   1   7  982.07   34.11   0
   5   4   5 1640.87   40.95   0
   5  11   7  141.09   39.73   0
   6   2  12   16.42   27.01   0
   6   6   7  785.60   33.28   0
   6   7   7 1369.60   40.04   0
   7   6  11  681.78   34.03   0
   3  -3   8 1424.12   52.15   0
   3  -2   5 4080.98   66.27   0
   3   4   2  459.05   31.26   0
   4   8   4 1554.82   52.00   0
   4  10   5  702.69   48.85   0
   5   0   9  535.65   33.31   0
   6   5   7   17.72   22.37   0
   6  10   8   94.97   31.19   0
   7   7  10  488.94   29.26   0
   7   8  10  539.06   30.81   0
   2  -4   7  244.23   33.18   0
   3   3   2 4525.74   75.18   0
   3   8   3 1453.17   60.42   0
   4   1   4 2353.83   47.53   0
   5   3   5    2.98   17.94   0
   6   3   8  473.40   29.13   0
   7   5  11   66.30   25.95   0
   7   6  10  -13.42   23.02   0
   1  -1   1  176.38   26.90   0
   6   2   9   98.22   24.02   0
   6   4   7 1050.28   36.67   0
   7  10  10  222.39   32.66   0
   2  -1   2   36.28   16.70   0
   3  -3   7   27.69   28.33   0
   3   2   2 3860.60   68.26   0
   3  10   4 1155.51   66.89   0
   4  -2   9  796.86   42.04   0
   4  -2  10   16.08   31.92   0
   4  -2  11  378.48   39.93   0
   4   4   3  216.57   22.02   0
   5  10   6  901.79   47.47   0
   6  12   9   23.99   39.62   0
   7   5  10  410.78   29.59   0
  -2  -2   0 1865.14   60.38   0
   2   2   1 5266.05   95.54   0
   4   3   3 2310.69   49.80   0
   4   5   3 2692.55   56.13   0
   5   1   6  382.78   25.08   0
   5   8   5  994.07   41.55   0
   6   9   7  209.53   29.70   0
   6  11   8  223.41   39.29   0
   7   4  11   95.56   25.76   0
   7   6   9  633.19   32.52   0
   7   7   9   44.40   21.67   0
   2  -4   6 1236.63   49.63   0
   4  -2   8  444.32   34.51   0
   5   2   5 1491.45   38.75   0
   6   2   8 1097.98   35.32   0
   7   9   9  548.83   35.04   0
   7  11  10  382.29   35.56   0
  -1   4   0  928.59   53.75   0
   6   1  11  539.16   34.96   0
   6   5   6  802.99   33.50   0
   6   6   6  161.84   23.86   0
   7   4  10  460.93   29.41   0
   7   5   9  542.08   32.88   0
   3  -3   6  815.19   38.29   0
   4   2   3 2970.94   54.99   0
   6   1  10   17.62   26.47   0
   3   1   2  780.19   33.14   0
   4   0   4 1600.52   40.50   0
   5  -1  10   85.20   30.31   0
   5  -1  11  365.26   33.78   0
   5   5   4 1304.94   38.70   0
   6   4   6  927.40   33.77   0
   6  10   7  762.66   41.89   0
   7   7   8  530.49   29.57   0
   7  10   9  100.71   30.63   0
   2   1   1 1726.00   54.06   0
   3  -1   3   61.41   17.37   0
   4   9   4  179.24   38.35   0
   5  -1   9 1048.34   42.09   0
   5  -1  12  266.91   37.70   0
   5   4   4  280.13   22.64   0
   5   9   5  350.90   36.31   0
   6   2   7   38.56   22.75   0
   6   8   6  555.93   37.23   0
   7   3  11  530.45   32.55   0
   7   4   9   -9.18   23.77   0
   7   6   8  126.15   25.30   0
   5   0   6 1594.70   41.21   0
   5   1   5  697.86   29.81   0
   5   3   4 2112.18   45.70   0
   6   3   6   29.11   21.29   0
   7   5   8  206.18   27.47   0
   7  12  10  116.34   36.04   0
   5  -1   8   12.03   26.29   0
   5  11   6  153.94   43.68   0
   7   9   8   29.07   28.21   0
   7  11   9   54.46   32.69   0
   2  -4   5 1273.86   50.42   0
   4  -2   6  439.84   30.98   0
   4   1   3 1112.53   35.28   0
   4   7   3  519.80   37.30   0
   7   3   9  406.27   27.46   0
  -1  -1   0 3377.13  110.75   0
   4  11   5   10.26   42.92   0
   5   2   4 2250.11   46.24   0
   6   0  11   92.52   30.39   0
   6   9   6  283.34   34.29   0
  -2  -5   3  722.29   59.49   0
   3  -3   5  139.84   26.42   0
   3   0   2  998.23   36.17   0
   5  -1   7 1046.01   40.46   0
   6   0  10  427.83   36.00   0
   6   1   7  746.09   32.93   0
   6   2   6  521.31   29.96   0
   6   5   5  104.83   23.38   0
   7   7   7   74.29   25.73   0
   7  10   8  432.63   38.79   0
   6   0   9  400.19   33.44   0
   6   4   5  311.28   25.92   0
   7   5   7  737.70   34.34   0
  -2  -1   0  892.81   41.06   0
   2   0   1  593.81   33.45   0
   3   9   3    2.12   38.43   0
   4  -3   9  464.07   42.92   0
   4  -1   4  306.74   23.22   0
   5   0   5   61.68   19.46   0
   7   3   8  345.36   28.01   0
   7  12   9  297.03   46.74   0
   1  -5   5 2173.28   74.89   0
   2  -2   2 1345.93   46.95   0
   4  -3   8   80.64   34.92   0
   5   8   4   56.98   30.48   0
   5  10   5  148.46   41.96   0
   6   3   5  926.45   34.49   0
   7   4   7  225.36   28.26   0
   1  -4   3   14.69   25.49   0
   4  -2   5    4.37   20.34   0
   4   0   3  675.01   29.36   0
   5  -2  10  415.00   41.41   0
   5   1   4   12.45   18.34   0
   6   0   8  236.26   29.46   0
   6  10   6   -9.17   37.43   0
   7   9   7  270.22   34.49   0
   8   6   9   31.78   24.84   0
   8   7   9  255.08   25.89   0
   3   7   2   17.76   30.08   0
   5  -2   9  122.02   33.77   0
   6   1   6  980.74   34.89   0
   6   8   5  148.84   31.79   0
   8   9   9   22.61   27.36   0
   4  -3   7 1197.78   46.64   0
   4   3   2  931.99   35.48   0
   4   8   3  321.59   38.16   0
   5   4   3 1428.08   41.04   0
   7   2   8   15.35   22.10   0
   7   3   7  151.24   25.42   0
   7   6   6  598.65   32.51   0
   8   5   9  177.32   28.77   0
  -1   6   1 1253.32   62.69   0
   4   2   2   54.78   18.88   0
   4  10   4  530.72   49.30   0
   5  -2   8  413.82   35.11   0
   5   3   3  475.00   27.94   0
   5   5   3 1241.76   39.29   0
   6   2   5  478.53   28.50   0
   7   1  10  547.03   34.34   0
   7   5   6   24.63   24.21   0
   8  10   9  172.88   31.81   0
   2  -4   4   29.53   27.31   0
   3  -3   4  829.21   37.65   0
   6  -1  10  446.50   35.79   0
   6  -1  11  101.72   32.91   0
   7   4   6  300.73   28.41   0
   7  10   7    2.60   33.58   0
   8   7   8  -12.24   22.40   0
   3  -1   2 2724.22   56.35   0
   5  -2   7  441.58   33.74   0
   6  -1   9   12.05   29.73   0
   7   8   6   -0.85   30.06   0
   8   4   9  445.49   31.63   0
  -2  -4   2   17.04   26.93   0
   3   2   1    9.13   16.68   0
   4  -3   6   68.31   28.31   0
   5   2   3   13.54   15.30   0
   5   9   4  822.82   50.09   0
   6   4   4 1621.06   42.09   0
   6   9   5  703.24   43.90   0
   7   2   7  572.99   30.81   0
   7  12   8    1.31   47.18   0
   8   5   8  545.97   31.98   0
   8   9   8  331.08   34.82   0
   4   1   2 2091.20   48.03   0
   6  -1   8  728.92   39.43   0
   6   0   6  103.51   23.61   0
   6   1   5  131.30   25.19   0
   6   3   4  315.19   25.50   0
   6  11   6  627.00   56.21   0
   7   3   6 1162.20   38.26   0
   4  -1   3 2576.32   50.86   0
   4   6   2 1072.54   46.73   0
   8   3   9  135.77   25.74   0
   8   4   8   10.30   26.30   0
   0   6   1  464.72   62.87   0
   2  -5   6  867.60   51.40   0
   2  -1   1 3665.10   74.54   0
   5  -2   6   36.23   26.73   0
   5   1   3 2014.67   44.80   0
   5   7   3 2224.41   58.77   0
   5  11   5  574.23   55.53   0
   6   7   4  901.29   41.14   0
   8  10   8   24.73   31.97   0
  -1   2   0 2343.68   80.71   0
   3   1   1 2531.08   56.73   0
   6  -1   7  111.20   28.72   0
   6   2   4  497.25   27.90   0
   7   0  10  121.62   29.49   0
   7   1   7  326.45   27.87   0
   7   2   6  182.34   26.28   0
   7   5   5  513.10   31.02   0
   7   6   5   48.02   24.00   0
   8   5   7   30.21   24.71   0
   8   6   7  255.01   26.19   0
   8   7   7  583.92   33.67   0
   4  -3   5  722.05   37.65   0
   7   0   9  177.81   31.32   0
   7   4   5  602.05   33.26   0
   8   3   8  270.87   27.19   0
   8   8   7   40.64   29.19   0
   4   0   2 4412.50   66.53   0
   5  -3   9  112.51   37.82   0
   6  10   5  632.31   51.10   0
   8   4   7  535.74   32.44   0
  -1   1   0 3126.20   95.53   0
   1  -5   4  371.60   44.53   0
   4   9   3 1601.97   65.04   0
   6   0   5  957.03   34.88   0
   6   8   4  561.76   39.65   0
   7   0   8  494.93   34.76   0
   7   3   5  149.88   27.76   0
   7  10   6  619.20   46.68   0
   8   9   7  111.77   34.31   0
   8  11   8   49.25   36.39   0
   5  -3   8  572.28   42.07   0
   5  -2   5  515.17   34.70   0
   5   0   3 1337.06   38.16   0
   6  -2  10   22.72   36.60   0
   6  -1   6  523.03   33.28   0
   6   1   4 1118.86   36.55   0
   7   8   5  686.38   40.16   0
   1   1   0 4083.13  112.16   0
   3  -2   2 1495.98   44.46   0
   3   0   1 4862.05   76.57   0
   4   7   2 1494.81   55.83   0
   5   4   2  143.95   22.82   0
   5   8   3  958.14   47.35   0
   6  -2   9  266.31   33.94   0
   7   1   6  141.82   24.81   0
   8   2   8  419.12   29.65   0
   8   3   7  494.09   31.11   0
   5  -3   7    8.79   32.85   0
   5   3   2  230.88   23.31   0
   5  10   4  527.25   49.36   0
   6  -2   8  394.95   35.81   0
   6   4   3    6.72   19.76   0
   6   5   3  846.80   34.49   0
   7   2   5  426.49   30.48   0
   8   5   6  761.26   34.62   0
   8   6   6  103.19   24.43   0
   2  -5   5    4.62   30.19   0
   2  -4   3 1268.11   49.49   0
   5   2   2 1776.55   44.16   0
   4  -3   4  829.15   38.10   0
   7   5   4  151.93   25.67   0
   7   9   5   90.38   35.45   0
   8   8   6  818.53   40.71   0
  -2  -5   4 1101.09   62.16   0
   4  -1   2  243.55   22.24   0
   4   3   1  324.71   26.01   0
   6  -2   7   95.33   31.65   0
   6   0   4  103.11   23.66   0
   6   2   3 1914.88   44.49   0
   6   9   4   27.67   35.12   0
   7  -1   9  361.65   34.04   0
   7   4   4  168.20   27.03   0
   7  11   6   97.54   48.58   0
   8   2   7   40.03   22.63   0
   1   3   0   38.68   35.01   0
   4  -4   6  280.77   36.97   0
   4   2   1 1859.49   48.24   0
   5  -3   6  706.26   39.61   0
   5   1   2  714.88   30.60   0
   7   3   4  976.22   37.55   0
   8   3   6    6.71   27.66   0
   2  -2   1 4565.47   82.41   0
   5  -1   3   25.84   18.71   0
   5   6   2 1611.19   50.08   0
   6   7   3   50.86   30.29   0
   6  11   5   28.05   47.21   0
   7  -1   8   52.16   29.93   0
   7   7   4  276.64   35.62   0
   8  11   7  113.18   44.98   0
  -1   5   1   23.58   25.41   0
   3  -1   1   15.55   16.52   0
   3  10   3  771.43   73.79   0
   4   1   1 1790.25   45.88   0
   6  -2   6  663.04   37.28   0
   6   1   3   37.26   20.55   0
   8   5   5  223.98   28.48   0
   9   6   7  146.39   27.48   0
   1   0   0    0.01   15.16   0
   3  -5   6    3.72   33.82   0
   7  -1   7  370.31   35.88   0
   7   2   4  566.51   31.79   0
   8   1   7  135.39   29.06   0
   8   2   6  619.03   33.14   0
   8   4   5  100.87   26.33   0
   8   6   5  536.78   33.90   0
   9   8   7  352.64   33.25   0
   4  -4   5  960.67   45.24   0
   5  -3   5  405.37   33.87   0
   5   9   3    5.21   37.57   0
   7  10   5  180.12   45.56   0
   2   1   0  887.75   40.66   0
   5   0   2  256.38   23.76   0
   6  -1   4   42.58   23.29   0
   7   8   4  109.12   34.17   0
   8  10   6   42.06   36.67   0
   4   8   2  784.87   52.08   0
   5   7   2   69.36   30.94   0
   6  -3   8    1.55   37.35   0
   6   8   3  234.97   38.40   0
   7   1   4    6.63   23.88   0
   8   8   5    9.55   32.84   0
   2  -5   4  757.34   46.70   0
   4  -3   3  157.92   24.47   0
   4  -2   2  754.16   32.24   0
   4   0   1  256.27   23.85   0
   6  -2   5    7.87   28.28   0
   6   4   2 1364.67   41.31   0
   6  10   4  310.28   47.79   0
   7  -2   9   91.23   34.08   0
   7  -1   6  236.34   31.06   0
   8   1   6  441.77   28.98   0
   7   3   3  541.79   33.12   0
   7   4   3 1715.14   45.44   0
   7   5   3  306.50   29.02   0
   9   5   6   45.44   27.79   0
   3  -5   5 1075.33   48.90   0
   6  -3   7  433.32   38.66   0
   6   2   2   33.43   20.54   0
   7  -2   8  233.78   34.21   0
   8   0   7  562.26   35.48   0
   2   0   0   89.13   17.30   0
   5  -3   4  374.31   33.22   0
   5  -1   2 1422.27   40.13   0
   5   3   1 1060.05   37.63   0
   7   2   3  126.86   26.19   0
   8   4   4  522.13   32.34   0
   8   5   4  306.01   28.54   0
   8   9   5  332.23   40.52   0
   9   4   6  155.86   28.96   0
   9   8   6    0.39   30.65   0
  -2  -3   2 2081.65   68.45   0
   3  -2   1 1602.02   45.33   0
   3   2   0 4037.55   73.52   0
   4  -4   4    4.60   26.76   0
   4   6   1  706.33   40.79   0
   5   4   1 1352.64   41.69   0
   6   6   2  314.35   33.31   0
   7  -2   7  470.44   36.86   0
   7   0   4  600.64   31.90   0
   8  11   6  345.64   52.50   0
  -2  -4   3 2440.65   76.83   0
   3   1   0 4956.19   78.08   0
   4  -1   1 2133.28   48.60   0
   6  -3   6   51.98   31.80   0
   6  -1   3 1470.43   42.11   0
   6   1   2  882.37   33.22   0
   7   7   3  636.44   41.95   0
   8   1   5   24.53   23.82   0
   8   7   4  394.99   37.84   0
   9   9   6  212.84   36.34   0
   1  -5   3  496.91   50.31   0
   5   1   1  331.59   25.49   0
  -2   0   1 2393.51   62.92   0
   5   8   2  832.73   50.63   0
   7  -2   6   56.30   32.60   0
   7   1   3 1127.72   38.54   0
   8   2   4  139.72   29.30   0
   9   6   5   -4.71   28.70   0
  -2   1   1 1229.64   44.75   0
   6   0   2  766.30   32.65   0
   8  -1   7  158.00   30.91   0
   8  10   5  420.60   49.33   0
   1  -1   0 3330.95   91.10   0
   3  -5   4  516.00   41.38   0
   3   0   0  240.63   22.54   0
   5  -4   5   25.58   32.32   0
   5   0   1 1954.38   46.35   0
   6  -3   5  587.65   37.46   0
   6   7   2 1127.89   48.33   0
  -1  -5   4  362.73   58.39   0
   2  -1   0 1571.17   49.15   0
   3   7   1  955.84   56.21   0
   5  -3   3 1357.81   42.76   0
   5  -2   2 1007.75   36.21   0
   5  10   3  780.75   58.64   0
   7   8   3  430.50   40.09   0
   7  10   4  359.07   52.79   0
   8   0   5  332.99   30.57   0
   9   3   5  -19.16   27.85   0
   9   8   5  309.67   37.59   0
   4   2   0 1477.65   42.99   0
   7  -3   8  396.33   42.06   0
   7   0   3  785.05   34.98   0
   7   3   2  594.61   34.21   0
   7   4   2  247.16   28.34   0
   8  -1   6  166.58   31.93   0
   8   1   4  901.22   36.32   0
   8   4   3   16.35   24.18   0
   8   5   3  587.20   34.94   0
   2  -5   3  585.63   43.70   0
   4  -4   3 1476.44   46.60   0
   4   3   0 4408.42   72.62   0
   5   6   1  886.01   42.17   0
   6   3   1  335.48   26.92   0
   4  -2   1  998.65   35.05   0
   6  -4   7  175.04   41.13   0
   6  -1   2   65.59   22.52   0
   6   2   1 1539.85   42.85   0
   6   4   1  571.00   31.61   0
   7  -3   7   46.67   33.74   0
   8   9   4   36.80   38.28   0
   9   2   5  181.75   29.49   0
   9   9   5   39.22   36.84   0
   2   7   1   80.60   52.65   0
   3  -4   2 1874.24   53.06   0
   3  -1   0 3322.62   62.16   0
   3   9   2 1976.95   97.55   0
   4   7   1   38.20   32.51   0
   5  -4   4  976.88   43.26   0
   5  -1   1  359.93   26.02   0
   6  -3   4  679.31   37.94   0
   7   6   2  347.79   36.42   0
   8   2   3  392.21   34.41   0
   9   4   4    5.33   24.98   0
   4   0   0 4417.65   67.57   0
   4   9   2   40.56   41.76   0
   6   1   1  975.38   35.48   0
   6   8   2  353.86   42.17   0
   7   1   2  607.12   33.43   0
   8   0   4  431.06   29.60   0
   8   7   3   12.53   33.53   0
   6  -4   6   91.47   37.45   0
   7  -3   6  358.26   35.61   0
   7  -2   4   69.57   30.15   0
   7  -1   3   25.98   22.82   0
   7   9   3   -2.27   45.53   0
   9   1   5  212.50   27.81   0
   9   3   4  234.26   30.79   0
   9   7   4   23.67   33.37   0
   6  10   3   99.83   48.29   0
   8   1   3  160.92   28.06   0
   5   2   0 1547.92   42.61   0
   6   0   1   12.44   20.09   0
   7   0   2   78.92   25.99   0
   7   7   2   32.54   30.90   0
   8  -2   6  377.00   35.67   0
   9  10   5  104.75   43.56   0
   2  -2   0 1618.79   50.35   0
   3   5   0 2180.13   66.31   0
   5   1   0 1053.05   36.35   0
   5   3   0   -6.60   18.49   0
   5   7   1 1301.45   51.62   0
   5   9   2  889.94   55.18   0
   6  -4   5  626.51   42.07   0
   6   6   1  532.62   37.89   0
   7  -3   5  156.35   34.49   0
   8   8   3  311.65   42.45   0
   8  10   4  240.85   51.20   0
   9   8   4   78.79   35.21   0
   0   7   2 2168.58   83.39   0
   4  -1   0 1097.40   35.86   0
   5  -4   3   79.18   30.29   0
   5  -2   1  350.04   25.73   0
   6  -3   3  141.49   29.34   0
   8   4   2  759.90   36.10   0
   4  -4   2  148.78   25.89   0
   4   5   0  539.06   36.36   0
   7   4   1  674.40   36.52   0
   8   0   3  127.07   25.19   0
   9   1   4    9.14   27.30   0
   9   4   3  408.62   30.05   0
   9   5   3  142.48   32.56   0
   3  -2   0 4356.87   70.22   0
   5   0   0    7.96   18.24   0
   6  -1   1  881.79   34.89   0
   7   2   1   94.12   26.47   0
   8  -2   5   11.13   30.24   0
   8   2   2   12.87   27.41   0
   9   3   3  153.61   27.92   0
  -1   3   1 4220.85   95.38   0
   6  -4   4    2.91   32.61   0
   7  -1   2  713.02   33.58   0
   7   1   1  261.90   28.90   0
   7   8   2  608.37   49.13   0
   8   6   2  540.08   39.55   0
   9   9   4  195.70   41.41   0
   6   9   2  198.63   47.33   0
   7  -3   4  319.61   34.59   0
   7  10   3  216.66   55.30   0
   8   1   2  421.71   33.60   0
   9   2   3   15.64   28.70   0
  -2  -3   3 1183.53   53.23   0
   5   5   0 1464.17   48.27   0
   6   2   0  355.90   27.83   0
   6   3   0 1771.12   46.19   0
   6   7   1  112.36   31.79   0
   9   7   3  349.24   38.92   0
   2  -6   4 1047.00   61.83   0
   4  -2   0   15.48   16.47   0
   5  -5   4  340.75   41.71   0
   5  -1   0 1447.16   40.19   0
   6   1   0  283.34   25.73   0
   7  -4   6  201.84   42.77   0
   7   6   1  869.70   45.51   0
   8  -2   4  432.43   36.39   0
   8   7   2  749.14   45.93   0
   2  -5   2  247.15   34.04   0
   3  -4   1 1217.22   44.74   0
   6  -3   2 1161.97   41.29   0
   8   0   2 1091.24   39.59   0
   9   1   3  405.16   33.22   0
   5  -4   2  941.98   40.82   0
   6  -2   1  955.06   36.48   0
   6   0   0 1376.34   40.32   0
   9   8   3  207.95   38.97   0
   9  10   4   55.33   50.72   0
   1  -6   4  395.04   70.33   0
   4   8   1 1232.60   61.04   0
   7  -4   5   12.51   31.63   0
   7  -3   3  590.38   36.98   0
   8  -3   5  134.20   34.68   0
   8   3   1   18.56   27.69   0
   8   4   1  386.80   32.91   0
   9   3   2   71.25   27.53   0
   9   4   2   78.78   26.87   0
   3  -6   4  126.92   39.18   0
   3   1  -1   28.97   16.25   0
   4   1  -1 2671.90   53.79   0
   4   6   0 1016.40   47.33   0
   5   8   1   20.65   35.86   0
   6   5   0   12.43   26.71   0
   7  -1   1  559.16   33.25   0
   8   2   1  506.34   35.10   0
   9   0   3  400.83   30.16   0
   3  -3   0  324.19   25.43   0
   3   0  -1 1243.02   39.50   0
   3   2  -1  491.90   29.34   0
   4   2  -1 1772.50   45.65   0
   5  -2   0 1612.23   42.22   0
   5   6   0  188.38   32.07   0
   6  -5   5   44.78   39.06   0
   7   9   2  480.88   53.28   0
   8  -1   2   96.76   26.46   0
   8   8   2  151.32   40.40   0
   9   6   2  309.96   39.34   0
   1  -5   2 1231.47   66.63   0
   4   0  -1  622.67   29.03   0
   5  -5   3  343.70   38.84   0
   6  -1   0 1306.91   39.38   0
   7   2   0  817.23   37.77   0
   7   3   0   20.59   25.02   0
   8   1   1  516.15   35.34   0
   8  10   3   59.71   52.78   0
  -1  -5   5 1403.08   76.34   0
  -1  -1   1 1260.86   65.99   0
  -1   2   1  326.28   31.80   0
   4  -5   2  384.13   33.89   0
   4  -3   0  749.78   32.19   0
   4   3  -1  100.98   20.85   0
   6   8   1  880.42   52.08   0
   7  -4   4  575.92   39.90   0
   7   1   0 1011.10   39.94   0
   8  -3   4  340.70   35.52   0
   8   6   1  126.70   36.04   0
   9   1   2  214.65   31.84   0
   9   9   3   15.93   41.07   0
  -1  -4   3  304.50   46.03   0
   1   9   3  169.72   52.57   0
   3  -1  -1 4147.56   67.81   0
   3   6   0  811.20   49.09   0
   5   1  -1  301.39   22.64   0
   8   0   1    3.06   26.08   0
   9   7   2   13.56   36.39   0
   2   0  -1 2418.79   61.42   0
   3   3  -1 3748.04   74.85   0
   4  -6   4  888.82   52.32   0
   4  -1  -1 1496.31   40.15   0
   5   0  -1 2439.56   48.94   0
   5   3  -1 3286.51   60.77   0
   6  -5   4  259.31   40.15   0
   6  -4   2  564.16   36.12   0
   6   6   0 1269.15   49.82   0
   7  -3   2    5.46   27.91   0
   7  -2   1   32.99   24.13   0
   7   0   0  161.08   27.13   0
   5  -4   1  467.08   31.75   0
   9   0   2   25.08   28.43   0
   3   8   1  347.98   53.78   0
   5  -3   0  591.01   30.66   0
   6  -2   0   73.95   22.96   0
   7  -4   3   98.15   33.53   0
   8   9   2   81.43   50.21   0
   9   4   1  296.92   34.85   0
   2   2  -1 4094.72   85.60   0
   3  -6   3  976.30   49.55   0
   5  -1  -1 2080.31   45.99   0
   6   1  -1 1417.34   41.13   0
   6   2  -1  980.83   36.50   0
   7  -1   0  473.55   31.77   0
   7   8   1  115.66   44.69   0
   8  -3   3   23.20   30.73   0
   8  -1   1  507.76   31.69   0
   8   7   1   88.17   39.13   0
   9   2   1   94.65   28.47   0
   9   8   2  324.59   42.33   0
  -1   1   1 3075.35   87.00   0
   2  -6   3    6.85   33.33   0
   2  -1  -1 1200.26   43.45   0
   5  -5   2  510.12   37.50   0
   6  -5   3  357.15   41.17   0
   6   0  -1  587.23   29.74   0
   6   3  -1   54.80   21.69   0
   8   2   0  164.09   29.67   0
   8   3   0  661.27   35.21   0
  -1   0   1 6030.77  129.32   0
   3  -2  -1  152.39   20.47   0
   4  -2  -1 3203.96   56.25   0
   7   6   0  118.70   34.52   0
   8   1   0  119.24   31.42   0
   9  -1   2  342.47   34.54   0
   9   1   1  194.73   32.20   0
   4  -6   3  -12.06   33.25   0
   5   7   0  334.56   39.82   0
   8  -4   4    1.65   33.02   0
   9   6   1  276.45   38.52   0
   4  -5   1 1592.16   49.78   0
   5  -2  -1  151.88   21.64   0
   6  -4   1  444.59   34.20   0
   6  -1  -1  102.89   22.02   0
   6   7   0 1048.05   50.51   0
   7  -4   2  398.35   37.71   0
   8  -3   2  320.30   37.10   0
   8   0   0  663.76   36.90   0
   8   5   0   67.03   33.26   0
   9   0   1  514.53   34.27   0
   4   7   0 1123.31   56.10   0
   7  -5   4  185.91   42.04   0
   7  -2   0  693.55   34.41   0
   7   1  -1   29.86   26.17   0
   7   2  -1  410.21   32.12   0
   7   3  -1  635.13   35.57   0
   8  -2   1  444.60   32.58   0
   8   8   1  503.90   51.27   0
   2  -5   1 1648.46   58.28   0
   5   5  -1  317.20   32.38   0
   6  -5   2   62.43   35.61   0
   6   9   1  391.64   50.42   0
   9   7   1  365.47   43.23   0
   2  -2  -1 3844.69   73.19   0
   8  -4   3  300.93   35.77   0
   8  -1   0  317.82   30.11   0
   8   6   0  488.48   42.88   0
   2   3  -1    0.51   21.06   0
   4  -3  -1  818.79   31.72   0
   4   5  -1 2151.94   58.42   0
   5  -5   1   15.08   28.51   0
   6   5  -1  845.24   40.43   0
   7  -5   3   60.56   36.77   0
   7   7   0  401.62   43.05   0
   9  -1   1  116.52   27.46   0
   9   2   0  301.29   32.48   0
   9   3   0   13.47   25.47   0
   3  -6   2  213.17   34.51   0
   3  -3  -1  604.66   29.98   0
   7   9   1  217.47   51.55   0
   5  -3  -1 1509.50   40.69   0
   5   1  -2 1897.62   44.89   0
   7  -4   1  548.39   37.39   0
   8   2  -1  435.78   32.91   0
   9   5   0  374.41   40.15   0
   0   6   2  639.51   46.35   0
   4   0  -2 1863.65   43.34   0
   5   0  -2  548.87   27.39   0
   5   2  -2  488.64   28.04   0
   6  -4   0 1034.83   41.20   0
   7   5  -1  158.71   34.15   0
   8  -2   0   16.18   23.63   0
   8   3  -1   63.36   27.09   0
   9   0   0   38.38   29.93   0
   9   8   1    4.97   43.85   0
   4  -1  -2 1430.00   38.83   0
   4   2  -2 2081.00   49.08   0
   6   1  -2  111.34   21.97   0
   8  -4   2  131.94   32.27   0
   8   0  -1   67.08   30.23   0
   8   7   0  233.27   42.12   0
   5  -6   2   10.33   35.68   0
   5  -1  -2  131.92   19.37   0
   6  -6   3    3.51   38.71   0
   6  -5   1  804.01   40.13   0
   6  -3  -1  618.08   31.71   0
   6   0  -2  577.64   28.97   0
   6   2  -2 1709.82   44.04   0
   7  -5   2  349.71   36.98   0
   7  -2  -1   -0.12   25.02   0
   8   9   1  181.50   52.78   0
   9   6   0   35.06   37.01   0
   2  -6   2 1824.70   65.63   0
   3   0  -2 2521.11   53.94   0
   4  -5   0   18.93   23.35   0
   5   6  -1 1066.59   47.65   0
   6   6  -1   18.86   30.41   0
   6   8   0   18.17   39.16   0
   9  -1   0  131.24   30.32   0
   2  -3  -1 2001.23   54.89   0
   3   1  -2 6928.24   89.54   0
   6  -1  -2 1980.08   45.17   0
   8  -1  -1  116.97   28.56   0
   8   5  -1  545.33   40.48   0
   3  -1  -2   33.21   16.56   0
   4  -2  -2  549.30   27.07   0
   5  -5   0 1823.80   51.50   0
   5  -2  -2 1828.08   42.86   0
   5   8   0  621.78   46.46   0
   7  -4   0   24.81   29.51   0
   7   2  -2   77.35   24.88   0
   7   6  -1  995.44   47.67   0
   7   8   0  827.70   53.67   0
   9   2  -1  415.68   31.33   0
   3   5  -1  406.21   37.16   0
   6  -6   2  538.54   46.30   0
   7   0  -2  579.80   31.17   0
   8  -4   1  134.22   31.83   0
   9   1  -1  -12.87   27.81   0
   9   3  -1  467.06   36.53   0
   9   7   0  144.72   42.65   0
   6  -2  -2  327.89   28.23   0
   7  -5   1   11.02   31.99   0
   7  -3  -1  293.02   27.68   0
   8  -2  -1  489.79   31.23   0
   9  -2   0  514.52   36.17   0
  -1   3   2 2474.49   66.50   0
   1   0  -1 6523.62  124.18   0
   3  -2  -2 3277.27   59.56   0
   3   2  -2 2646.82   58.31   0
   5  -6   1  433.72   40.22   0
   5   4  -2  911.72   37.97   0
   6  -5   0   93.50   29.90   0
   7  -1  -2    2.79   22.59   0
   8   6  -1    8.98   36.30   0
   8   8   0   -0.88   48.53   0
   9   0  -1  257.10   31.54   0
  -1  -2   2   33.12   23.70   0
   3   7   0  320.93   45.60   0
   4   6  -1   70.15   30.28   0
   5  -3  -2 1744.47   41.80   0
   7   4  -2  952.05   43.45   0
   8  -5   2   -1.97   33.70   0
   8   1  -2   29.02   27.65   0
   8   2  -2  582.50   34.16   0
   1  -1  -1 3324.84   85.00   0
   4  -3  -2  186.80   21.38   0
   7  -2  -2  596.35   32.71   0
   9  -1  -1  416.13   33.91   0
   1  -5   1  746.85   54.45   0
   6  -3  -2  387.53   28.33   0
   8  -4   0  452.62   37.73   0
   1   1  -1 1395.76   62.84   0
   4   4  -2   88.31   24.86   0
   6  -6   1  159.39   36.57   0
   6   7  -1  601.33   45.56   0
   7  -6   2   11.10   38.49   0
   7   7  -1  313.60   45.13   0
   8  -1  -2  636.50   35.63   0
   9   8   0  248.18   53.04   0
   4  -5  -1 1546.92   45.25   0
   5  -5  -1  225.98   30.66   0
   5   0  -3  473.18   26.71   0
   6   5  -2  481.19   36.75   0
   7  -5   0  548.71   37.29   0
   8  -5   1  309.55   35.22   0
   8   4  -2   25.30   31.26   0
   9  -2  -1   55.16   28.77   0
   9   6  -1  396.77   41.59   0
  -1  -3   3 1247.05   60.21   0
   3  -3  -2 1503.03   41.58   0
   5   1  -3  436.89   26.17   0
   6   0  -3 1038.08   34.64   0
   6   1  -3  918.59   34.73   0
   7  -3  -2  594.38   32.99   0
   7   5  -2  304.87   33.43   0
   9   1  -2  564.57   34.67   0
   9   2  -2   55.81   25.51   0
   4  -7   2  337.93   40.82   0
   4  -6   0  768.14   37.92   0
   5  -4  -2   19.55   18.85   0
   5   5  -2  993.32   42.85   0
   5   7  -1  433.14   41.38   0
   6  -1  -3   73.45   22.68   0
   6   2  -3   34.53   21.00   0
   8  -2  -2  271.24   29.95   0
   9   0  -2  324.01   33.49   0
   1  -2  -1  344.46   30.05   0
   2  -6   1  261.50   36.22   0
   2  -1  -2 5209.66   81.47   0
   2   0  -2 1212.59   42.27   0
   4   0  -3  576.43   27.81   0
   5   2  -3 2878.29   53.93   0
   7  -6   1  348.97   40.53   0
   7   0  -3  173.82   27.05   0
   7   1  -3  249.58   27.86   0
   8   5  -2  453.49   40.66   0
   3  -5  -1  937.79   38.69   0
   4  -1  -3  103.43   16.82   0
   4   1  -3 2380.84   49.43   0
   5  -2  -3  662.43   29.55   0
   6  -6   0  206.85   34.44   0
   6  -2  -3  203.78   25.73   0
   7  -1  -3  964.04   39.40   0
   8  -4  -1    4.12   28.29   0
   9  -1  -2   -3.39   27.94   0
   9   4  -2  530.04   42.19   0
   8  -5   0    5.58   31.90   0
   9   7  -1   55.43   39.65   0
   2  -2  -2  415.25   26.23   0
   2   1  -2   71.71   17.67   0
   4  -2  -3 1323.68   37.28   0
   7  -5  -1  248.77   32.44   0
   7  -2  -3  587.80   31.93   0
   8  -3  -2   80.03   24.09   0
   8   0  -3  788.84   38.88   0
   8   1  -3  497.60   32.09   0
   8   2  -3    1.50   26.18   0
   3  -4  -2  117.56   19.82   0
   4   2  -3  353.24   25.07   0
   6  -3  -3  819.77   35.34   0
   6   6  -2  894.82   44.92   0
   7   6  -2  169.35   36.95   0
   9  -2  -2  210.45   30.01   0
   9   5  -2  213.83   39.16   0
  -1  -1   2  164.42   26.80   0
   7  -6   0  306.06   36.23   0
   8  -1  -3   27.69   28.25   0
   8   6  -2  450.39   42.66   0
   4  -3  -3 2248.21   46.85   0
  -5  -4  -7  289.79   28.75   0
  -4 -11 -13  123.38   32.34   0
  -4 -10 -11   64.56   28.76   0
  -3 -12 -13    0.27   37.98   0
  -1 -10  -8  668.99   48.40   0
   0 -11  -9  975.39   60.24   0
   1  -8  -5 2491.77   84.20   0
   1  -7  -4 2197.22   81.93   0
  -6  -7 -12  571.48   31.76   0
  -6  -6 -11   78.11   29.05   0
  -6   0 -10  397.53   45.81   0
  -5  -1  -6  349.91   31.48   0
  -5   0  -6 1556.01   50.18   0
  -4   2  -4 2966.86   75.89   0
  -3 -11 -11   64.73   36.37   0
  -3  -4  -4   93.11   20.84   0
  -3  -2  -3 1423.18   47.38   0
  -2 -11 -10   32.15   35.84   0
  -1 -13 -13  103.08   47.87   0
   2  -6  -3 5326.28  174.89   0
   3  -3  -1  546.64   61.56   0
  -6  -3  -9  259.02   32.09   0
  -6  -2  -9   90.04   29.53   0
  -6  -1  -9  984.80   48.71   0
  -5  -8 -10  684.21   41.50   0
  -5  -7  -9  140.35   29.66   0
  -3  -8  -7 2467.86   57.75   0
  -2  -4  -3  429.62   31.51   0
  -2  -2  -2  942.09   44.46   0
  -1  -5  -3 3096.80   76.77   0
   1  -9  -6  215.50   45.50   0
   1   3   1 1354.57   57.38   0
  -5  -9 -11  495.68   38.49   0
  -5  -6  -8  526.19   33.76   0
  -5   1  -6  817.43   44.71   0
  -3  -9  -8   22.24   28.45   0
  -3  -7  -6 1969.97   52.64   0
  -1 -11  -9   17.40   42.54   0
  -4  -9  -9   33.81   31.38   0
  -4  -8  -8  617.22   38.20   0
  -4  -7  -7 1256.02   42.10   0
  -4  -4  -5  291.14   24.86   0
  -2 -13 -13  320.09   46.69   0
   4  -4  -2 1617.73   86.57   0
  -6  -8 -12   59.74   27.16   0
  -6  -7 -11  342.04   28.71   0
  -6   0  -9  430.43   44.27   0
  -5 -10 -12   -3.59   28.24   0
  -5  -5  -7 1234.87   40.65   0
  -5  -3  -6 1367.29   42.00   0
  -3 -12 -12  663.06   50.01   0
  -3  -6  -5  454.47   30.80   0
  -2 -12 -11  462.72   47.08   0
  -2  -7  -5 1402.23   46.77   0
   1  -6  -3   27.12   37.95   0
  -4 -10 -10  798.88   40.10   0
  -4  -6  -6  550.40   30.93   0
  -4  -2  -4 1531.20   44.32   0
  -2 -10  -8  147.81   39.98   0
  -1 -13 -12   83.24   50.29   0
   1 -10  -7  104.19   44.57   0
  -6  -2  -8 1015.76   41.98   0
  -3 -11 -10  519.08   44.48   0
  -6  -3  -8  422.85   33.86   0
  -6  -1  -8  291.08   34.16   0
  -5  -9 -10  184.78   32.21   0
  -5  -8  -9   97.95   32.17   0
  -5  -7  -8 1639.29   48.80   0
  -5   2  -6   25.44   33.93   0
  -6  -8 -11  568.52   35.17   0
  -6  -7 -10  173.42   28.31   0
  -5  -4  -6 1091.31   37.28   0
  -4   3  -4  896.56   52.06   0
  -2 -11  -9  703.16   46.86   0
  -2  -6  -4  435.44   30.52   0
  -7  -4 -12  169.98   30.27   0
  -7  -3 -12   18.31   31.80   0
  -6  -9 -12  157.04   32.47   0
  -6  -6  -9   30.69   24.14   0
  -6   0  -8  250.75   37.51   0
  -5 -10 -11  750.54   39.00   0
  -5  -6  -7  627.83   33.33   0
  -4  -5  -5  147.43   22.38   0
  -3  -5  -4  281.09   27.34   0
  -3  -3  -3 3142.17   65.06   0
  -2 -13 -12  502.21   45.66   0
  -4  -3  -4   26.64   19.00   0
  -3 -12 -11  210.76   43.54   0
  -1  -9  -6  442.44   39.52   0
  -1  -8  -5 1340.66   53.03   0
   0   5   0   44.68   26.79   0
   2  -1   0 1549.41   79.60   0
  -7  -6 -12  112.83   30.18   0
  -7  -4 -11   93.73   29.64   0
  -7  -3 -11  548.92   35.76   0
  -5 -11 -12  418.00   34.46   0
  -5  -1  -5  698.41   35.06   0
  -5   0  -5   80.98   25.48   0
  -4  -9  -8 1089.47   43.63   0
  -3   2  -2 1539.51   64.10   0
  -1 -10  -7   28.26   35.27   0
  -6  -5  -8  699.96   33.51   0
  -4 -10  -9  510.85   35.89   0
  -4  -8  -7  220.08   29.61   0
  -3  -8  -6   97.20   27.63   0
  -3   0  -2  964.74   44.73   0
  -2 -12 -10  389.86   45.16   0
  -7  -2 -11  151.19   38.59   0
  -6  -9 -11  174.86   30.36   0
  -6  -8 -10   85.95   28.60   0
  -6  -2  -7   38.58   27.71   0
  -6  -1  -7  708.30   39.80   0
  -5  -5  -6  107.09   22.74   0
  -5   1  -5  184.82   31.56   0
  -1 -13 -11  217.43   50.54   0
  -1  -4  -2   86.70   22.67   0
  -6 -10 -12  353.76   33.84   0
  -6  -7  -9  764.90   36.55   0
  -6  -3  -7 1385.13   43.38   0
  -5  -9  -9 1017.26   41.72   0
  -5  -8  -8  547.59   35.63   0
  -4  -7  -6  342.21   28.95   0
  -3 -13 -12   53.21   40.30   0
  -3 -11  -9   18.20   36.76   0
  -2  -3  -2 3705.37   76.84   0
  -2   3  -1  158.28   63.07   0
  -1 -11  -8  788.63   51.57   0
  -7  -4 -10  469.65   35.41   0
  -7  -3 -10  145.29   30.13   0
  -5 -10 -10  346.56   32.79   0
  -5  -3  -5    6.96   18.41   0
  -2  -5  -3 2171.78   57.33   0
  -7  -5 -10  434.33   33.35   0
  -7  -2 -10  143.91   36.42   0
  -6  -6  -8  891.60   35.91   0
  -5 -11 -11  113.94   28.39   0
  -5  -7  -7   14.07   24.53   0
  -4  -4  -4 1099.19   38.41   0
  -2 -13 -11   -2.36   39.29   0
  -2  -9  -6  810.42   42.36   0
  -1  -2  -1   47.38   21.87   0
  -4  -6  -5  727.79   33.78   0
  -4   1  -3 2840.51   66.81   0
  -3 -12 -10  232.52   43.37   0
  -3  -4  -3 3154.93   63.48   0
  -3  -1  -2  813.24   38.06   0
  -2 -10  -7  828.92   46.95   0
  -2   0  -1  601.69   41.97   0
   4  -5  -3  777.86   72.67   0
  -4  -1  -3 1113.34   40.99   0
  -2 -11  -8  397.16   40.39   0
  -1 -12  -9  500.57   50.96   0
  -7  -4  -9   -4.16   27.40   0
  -7  -3  -9  439.84   34.83   0
  -6 -10 -11   49.99   30.64   0
  -6  -8  -9  906.67   40.68   0
  -6  -5  -7    9.06   22.32   0
  -5  -6  -6 1379.39   41.50   0
  -5  -4  -5 1748.14   44.37   0
  -5   2  -5  512.11   39.18   0
  -3  -6  -4 2771.15   58.55   0
  -1   5  -1  664.71   54.71   0
  -7  -8 -11   -0.88   23.58   0
  -6  -7  -8   73.46   27.23   0
  -6   1  -7  108.27   34.74   0
  -4 -10  -8  332.60   33.94   0
  -3   3  -2  386.98   47.21   0
  -7  -7 -10  516.73   32.24   0
  -6  -2  -6  507.26   33.40   0
  -5 -10  -9  255.25   30.86   0
  -5  -9  -8   74.29   29.32   0
  -4  -9  -7  474.97   33.77   0
  -3 -13 -11  762.03   49.00   0
  -2 -12  -9   53.58   43.23   0
   1  -5  -2 1206.71   74.15   0
  -7  -1  -9   -0.76   35.12   0
  -6  -1  -6 1057.99   40.89   0
  -5 -11 -10  718.42   37.29   0
  -5  -8  -7  523.31   34.60   0
  -4  -8  -6 1979.06   50.10   0
  -4   2  -3 1415.83   54.65   0
  -2 -14 -12  130.26   49.33   0
   3   0   0  265.99   30.66   0
  -6  -6  -7  764.08   35.95   0
  -5  -1  -4    9.78   22.45   0
  -4 -12 -10  430.16   42.12   0
  -4  -5  -4 1685.66   44.79   0
  -4   4  -4   13.75   45.37   0
  -3  -2  -2 3899.10   72.31   0
  -1 -13 -10   36.63   46.46   0
  -7  -9 -11  331.52   31.02   0
  -7  -3  -8  326.43   32.00   0
  -6 -10 -10  276.61   32.17   0
  -6  -9  -9   49.52   31.52   0
  -6  -4  -6  963.70   35.29   0
  -6   0  -6  116.96   31.19   0
  -5  -5  -5 1719.51   44.89   0
  -5   0  -4 1721.75   49.13   0
  -7  -8 -10  532.49   30.05   0
  -7  -4  -8  838.48   37.40   0
  -7  -2  -8   16.97   30.38   0
  -6 -11 -11  409.31   35.53   0
  -6  -8  -8  370.87   33.29   0
  -4  -7  -5 1078.64   39.06   0
  -2 -13 -10  490.82   49.18   0
  -2  -1  -1 1689.11   58.03   0
  -7  -7  -9   60.39   22.90   0
  -4 -13 -11   14.92   36.26   0
  -4  -3  -3 2288.72   51.90   0
  -3 -12  -9  478.03   42.59   0
  -2  -4  -2 3806.78   73.93   0
   0 -10  -6   45.80   35.44   0
  -8  -4 -11  313.45   33.93   0
  -7  -1  -8  360.07   39.61   0
  -6  -5  -6  873.78   34.87   0
  -5  -3  -4 2152.63   47.62   0
  -5   1  -4 2329.99   60.46   0
  -1 -10  -6 1328.99   51.80   0
  -1  -9  -5 1039.05   47.87   0
  -6  -7  -7 1427.07   43.40   0
  -1 -11  -7  339.02   44.50   0
   0 -11  -7  574.23   47.18   0
   3  -4  -2  111.18   47.11   0
  -7  -9 -10    9.51   27.88   0
  -7  -6  -8  131.06   26.97   0
  -6   1  -6  513.27   39.60   0
  -5 -11  -9   83.02   31.18   0
  -5 -10  -8  641.89   36.26   0
  -5  -6  -5   24.45   21.37   0
  -3 -13 -10   20.95   35.59   0
   0  -8  -4 2487.85   70.78   0
   1 -10  -6  635.06   53.69   0
   1  -9  -5  169.36   39.51   0
  -7  -8  -9  295.69   29.14   0
  -5  -9  -7  917.40   40.85   0
  -4  -6  -4    1.91   20.62   0
  -3  -3  -2 4485.14   74.89   0
  -2 -14 -11  233.07   48.36   0
  -2 -11  -7  670.76   44.64   0
  -2 -10  -6   16.34   29.74   0
  -1 -12  -8  109.12   42.52   0
  -1  -8  -4  143.37   30.97   0
  -1  -5  -2 3678.97   80.24   0
   2   0   0   94.79   26.68   0
  -8  -5 -10  263.64   31.29   0
  -8  -4 -10   15.69   28.04   0
  -7  -3  -7  128.44   28.44   0
  -7  -2  -7  602.28   37.74   0
  -6 -11 -10  -12.59   27.36   0
  -6  -9  -8  832.63   41.12   0
  -6  -6  -6  130.11   26.23   0
  -6  -2  -5  512.30   31.01   0
  -6  -1  -5  141.21   27.16   0
  -5  -4  -4  281.73   24.37   0
  -4 -12  -9  235.99   40.48   0
  -4  -9  -6  575.89   34.97   0
  -4  -4  -3  235.37   23.44   0
  -2  -9  -5  514.00   35.94   0
  -1   6  -2    3.47   30.38   0
  -8  -6 -10  379.03   31.65   0
  -8  -3 -10  416.66   39.53   0
  -7  -7  -8  523.25   31.08   0
  -7  -4  -7  224.06   29.01   0
  -5  -8  -6    6.84   26.39   0
  -4   3  -3  157.81   37.07   0
  -3 -14 -11  195.54   42.55   0
  -2 -12  -8  491.45   46.27   0
   1  -8  -4   27.89   36.45   0
   3  -2  -1  154.20   31.90   0
  -6  -8  -7  325.79   34.25   0
  -4 -13 -10  497.33   43.60   0
  -7 -10 -10  246.86   33.45   0
  -7  -1  -7  356.50   36.65   0
  -6  -4  -5  329.31   24.88   0
  -6   0  -5  950.61   42.09   0
  -5   2  -4  348.57   36.29   0
  -4  -8  -5    4.73   22.16   0
  -3 -11  -7  633.41   44.06   0
  -2  -2  -1 5309.76   91.68   0
  -1  -3  -1 1332.22   52.80   0
  -8  -5  -9  169.41   31.33   0
  -8  -4  -9  478.49   34.37   0
  -5  -7  -5 1013.85   37.51   0
  -3 -12  -8   30.42   36.64   0
  -3 -10  -6 1007.81   44.69   0
  -2 -13  -9   93.45   44.70   0
   0  -7  -3  337.42   37.15   0
  -8  -3  -9  114.34   30.14   0
  -7  -8  -8  378.00   30.14   0
  -7  -6  -7  381.66   28.15   0
  -6  -7  -6  274.66   29.93   0
  -3  -6  -3  106.37   21.18   0
  -8  -6  -9   38.36   27.05   0
  -6 -11  -9  616.42   35.72   0
  -6 -10  -8   88.32   28.27   0
  -6  -5  -5  115.26   23.67   0
  -5 -11  -8  464.93   36.82   0
  -5 -10  -7  123.93   30.46   0
  -3 -13  -9  453.17   44.94   0
  -8  -2  -9   67.66   38.90   0
  -7   0  -7    6.27   32.97   0
  -6 -12 -10  198.60   35.19   0
  -4  -7  -4 1113.58   39.24   0
  -4  -5  -3 2714.67   54.10   0
  -4  -1  -2 2117.63   52.81   0
  -3  -4  -2  445.95   27.46   0
  -2  -5  -2  831.91   36.48   0
   2   1   0  863.38   41.61   0
  -7  -7  -7   78.43   24.98   0
  -7  -3  -6 1198.29   40.33   0
  -7  -2  -6  196.08   30.05   0
  -6  -9  -7  196.98   31.07   0
  -6   1  -5  891.66   43.01   0
  -5 -13 -10  119.16   36.31   0
  -5  -9  -6  445.63   34.32   0
  -5  -2  -3   12.14   16.29   0
  -7 -10  -9  133.76   30.36   0
  -5   0  -3 1319.10   43.19   0
  -4 -11  -7  451.26   38.10   0
  -4  -2  -2   47.69   17.17   0
  -4   1  -2  232.75   28.70   0
  -3 -14 -10  224.47   46.68   0
  -3  -8  -4  251.19   27.75   0
   1   3   0   32.76   17.95   0
   2   2   0 1884.23   53.49   0
  -8  -5  -8  532.51   34.81   0
  -8  -4  -8   16.70   26.45   0
  -8  -3  -8  269.76   32.91   0
  -7  -9  -8   12.85   28.97   0
  -7  -1  -6  171.50   33.73   0
  -5  -6  -4 2436.82   51.22   0
  -5  -3  -3  459.84   26.28   0
  -4 -13  -9   97.82   41.25   0
   0   5  -1 2880.64   72.10   0
   1  -7  -3 1542.52   72.68   0
  -8  -8  -9  211.48   27.64   0
  -6  -8  -6  563.72   35.85   0
  -6  -2  -4  503.23   29.45   0
  -5  -8  -5 1009.50   39.70   0
  -8  -2  -8  437.80   39.81   0
  -4  -9  -5  781.97   37.58   0
  -3   0  -1 5139.57   89.72   0
  -7  -8  -7  868.82   37.55   0
  -6 -12  -9   32.22   34.46   0
  -5  -4  -3 1463.37   40.71   0
  -5   1  -3   12.52   24.04   0
  -4 -14 -10   68.66   38.45   0
  -4  -3  -2  926.23   34.77   0
  -2 -12  -7   32.53   40.49   0
  -2 -11  -6  833.95   46.64   0
  -2  -3  -1 1729.68   51.03   0
  -8  -9  -9   25.64   25.84   0
  -6 -10  -7  777.62   37.74   0
   1   2   0 5596.17  105.35   0
  -7 -11  -9   56.51   28.82   0
  -7 -10  -8  455.34   35.23   0
  -7   0  -6  560.63   40.25   0
  -6  -7  -5  569.92   33.33   0
  -6   0  -4  120.72   25.16   0
  -5 -13  -9  271.16   39.79   0
  -5 -12  -8   49.56   32.90   0
  -3 -12  -7  934.83   48.79   0
  -3 -11  -6  348.23   38.18   0
  -3  -5  -2 3526.03   63.94   0
  -2 -13  -8  263.93   46.46   0
  -8  -5  -7   32.68   27.50   0
  -8  -3  -7  562.98   36.86   0
  -7  -7  -6  659.46   34.01   0
  -7  -3  -5  155.80   27.86   0
  -5 -10  -6  936.32   40.19   0
  -5  -7  -4  380.83   28.29   0
  -3 -13  -8  356.32   44.50   0
   0 -11  -6  407.41   45.21   0
   0 -10  -5  881.20   50.81   0
   1   1   0 3459.22   97.51   0
  -8  -8  -8  419.11   28.59   0
  -7  -9  -7  311.78   33.24   0
  -6  -9  -6  340.73   31.74   0
  -6  -5  -4  947.13   35.29   0
  -5   3  -4  365.73   43.77   0
  -4  -4  -2 3022.44   56.54   0
  -4   2  -2  788.39   43.29   0
  -3 -10  -5  139.45   33.86   0
  -3  -2  -1   15.29   15.71   0
  -2  -9  -4  304.36   32.09   0
  -5  -5  -3 1219.07   38.64   0
  -1  -4  -1 5534.58   95.82   0
   0  -6  -2  717.97   44.95   0
  -8  -2  -7   40.08   31.95   0
  -7  -5  -5  523.94   29.15   0
  -5  -9  -5  369.75   31.74   0
  -4 -13  -8  425.66   44.44   0
  -4 -12  -7   14.13   33.16   0
  -4 -11  -6  508.47   40.21   0
  -3 -14  -9   17.35   43.22   0
  -2  -6  -2  882.87   36.74   0
  -9  -4  -9   -4.58   29.61   0
  -8  -9  -8  326.52   31.55   0
  -8  -7  -7  651.75   33.88   0
  -7  -8  -6   15.95   26.39   0
  -7  -1  -5 1345.57   45.43   0
  -6  -8  -5  134.80   28.23   0
  -6  -6  -4   17.67   23.19   0
   0  -9  -4  488.91   44.05   0
  -7 -11  -8  454.51   34.82   0
  -7  -6  -5   53.99   22.95   0
  -6 -11  -7  474.15   35.41   0
  -6   1  -4   36.64   28.69   0
  -4 -14  -9  359.62   41.81   0
  -4  -7  -3  508.67   30.38   0
  -5   2  -3  736.14   43.37   0
  -3  -3  -1 2530.87   55.00   0
  -2  -4  -1 1162.15   41.18   0
  -8  -8  -7   83.21   23.06   0
  -8  -4  -6  478.45   33.52   0
  -8  -3  -6   32.14   29.03   0
  -7 -10  -7   13.63   27.34   0
  -6 -10  -6   26.19   26.84   0
  -5 -12  -7  638.97   43.42   0
  -5  -8  -4   57.14   27.32   0
  -5  -6  -3  221.33   23.73   0
  -5  -2  -2 1732.33   43.41   0
  -4  -5  -2  338.17   24.78   0
  -9  -5  -8    6.85   27.63   0
  -7   0  -5  278.62   34.66   0
  -5 -13  -8  277.11   38.90   0
  -4  -9  -4  175.33   28.59   0
  -3  -6  -2  839.53   33.98   0
  -3   2  -1 1655.81   65.37   0
  -9  -6  -8  129.17   26.83   0
  -9  -4  -8  305.45   33.64   0
  -7  -9  -6  390.25   34.54   0
  -7  -7  -5  317.72   29.89   0
  -6  -7  -4  947.41   37.22   0
  -6  -4  -3   -3.90   19.20   0
  -6  -1  -3   39.34   21.65   0
  -5  -3  -2  226.47   21.50   0
  -8  -2  -6  671.44   40.65   0
  -7  -3  -4 1028.45   39.37   0
  -5 -10  -5  131.05   30.35   0
  -5   0  -2  243.42   25.48   0
  -9  -3  -8  259.49   38.19   0
  -8  -9  -7   94.21   29.51   0
  -8  -7  -6  310.15   26.97   0
  -3 -12  -6   90.52   39.18   0
  -2 -12  -6 1047.53   53.85   0
  -1   0   0    6.88   16.71   0
  -1   5  -2 1195.36   56.34   0
   0  -8  -3   72.76   32.45   0
  -7  -5  -4  172.02   24.49   0
  -6  -5  -3  818.00   32.81   0
  -5  -7  -3 2166.75   49.27   0
  -5  -4  -2  143.18   21.14   0
  -4  -1  -1 1757.70   45.95   0
  -3 -13  -7  177.74   43.03   0
  -3 -11  -5  957.47   47.02   0
  -3  -4  -1 2568.74   54.15   0
  -2 -13  -7  509.92   51.38   0
  -2 -11  -5  275.75   38.99   0
  -8  -1  -6  481.66   42.47   0
  -7 -11  -7  457.95   36.05   0
  -7  -8  -5  730.71   37.85   0
  -6 -13  -8   92.09   35.44   0
  -4 -13  -7  539.66   47.16   0
  -4  -8  -3  301.97   29.50   0
  -4  -6  -2 1068.05   37.19   0
  -4  -2  -1 1797.55   44.96   0
  -9  -6  -7  192.20   30.26   0
  -9  -5  -7  494.46   34.17   0
  -7  -1  -4    8.12   24.97   0
  -6 -11  -6  675.09   36.47   0
  -6  -8  -4  540.58   33.98   0
  -4 -12  -6  389.65   39.03   0
   3  -3  -2 1454.41   64.24   0
  -9  -4  -7  192.85   30.32   0
  -8 -10  -7  316.03   32.86   0
  -8  -4  -5  116.28   26.10   0
  -8  -3  -5  748.95   37.03   0
  -7 -10  -6  651.01   37.02   0
  -7  -6  -4  860.57   35.44   0
  -6   2  -4  861.92   48.44   0
  -5  -5  -2 1825.00   44.01   0
  -4 -14  -8   32.74   37.33   0
  -4 -11  -5    5.86   33.14   0
  -4  -3  -1  342.02   24.64   0
  -2 -10  -4  166.56   31.26   0
  -1  -1   0 3873.60   96.03   0
  -6  -6  -3  978.43   36.00   0
  -5   1  -2 1434.88   47.71   0
  -3  -7  -2    1.18   19.58   0
  -2  -5  -1 1586.88   46.18   0
  -1  -5  -1  573.10   35.51   0
   3  -5  -3 1115.68   73.23   0
  -9  -3  -7   40.61   34.30   0
  -8  -2  -5  382.28   35.52   0
  -6 -10  -5  652.47   35.46   0
  -5 -14  -8  462.76   43.61   0
  -5 -13  -7  105.95   37.41   0
  -5 -12  -6  243.06   38.35   0
  -8  -9  -6  287.22   30.46   0
  -7  -9  -5  123.66   30.74   0
  -7  -7  -4  285.55   29.63   0
   1  -9  -4 1232.68   69.97   0
  -8  -7  -5  268.04   26.93   0
  -7   0  -4  627.73   39.52   0
  -6   1  -3 1520.17   51.11   0
  -5  -8  -3  893.16   39.02   0
  -4  -4  -1  637.96   29.04   0
  -4   1  -1 2194.13   57.67   0
  -3  -5  -1   26.56   17.65   0
  -2  -9  -3 2120.16   56.99   0
  -2  -1   0  835.61   37.67   0
  -2   0   0   91.02   19.50   0
  -9  -5  -6   54.42   29.35   0
  -6  -9  -4    4.06   27.87   0
  -6  -7  -3   72.08   26.33   0
  -6  -3  -2 1103.51   35.58   0
  -4  -7  -2 1451.36   41.93   0
  -4   3  -2 1946.46   77.65   0
  -9  -6  -6  482.92   34.25   0
  -9  -4  -6  151.35   29.48   0
  -8  -1  -5   12.70   34.63   0
  -7 -11  -6  101.80   27.42   0
  -6 -13  -7  301.79   38.97   0
  -8  -8  -5   13.24   24.62   0
  -7  -8  -4   76.22   30.04   0
  -7  -5  -3  335.94   26.86   0
  -7  -2  -3  114.84   26.22   0
  -6  -4  -2 1362.51   38.89   0
  -6  -1  -2  861.81   36.44   0
  -2  -2   0 1792.44   50.44   0
  -1  -2   0 6021.87  107.60   0
  -9  -3  -6  405.97   37.81   0
  -8 -10  -6   61.71   30.85   0
  -8  -4  -4  557.81   34.29   0
  -7 -10  -5  154.32   30.61   0
  -5   3  -3 1371.40   65.97   0
   0 -11  -5   74.65   41.35   0
  -8  -3  -4  173.09   28.73   0
  -6 -11  -5   36.63   29.64   0
  -6  -5  -2   72.11   20.99   0
  -5  -3  -1 1098.47   34.91   0
  -5  -2  -1  116.81   17.96   0
  -4 -13  -6   -5.52   35.89   0
  -4  -5  -1 2813.12   52.49   0
  -3 -13  -6  668.98   49.07   0
  -3 -12  -5  418.71   43.02   0
  -2   5  -3  507.17   49.91   0
  -8  -6  -4   26.77   22.79   0
  -6  -8  -3  219.34   30.49   0
  -5  -7  -2   93.24   22.49   0
  -4 -14  -7  355.99   42.70   0
  -4 -12  -5  194.13   36.96   0
  -3 -14  -7   18.62   44.68   0
   2  -1  -1 1113.71   54.60   0
   2   1  -1 5763.37   93.77   0
   3  -2  -2 3165.83   79.05   0
  -9  -2  -6  156.02   38.35   0
  -8  -9  -5  349.16   33.52   0
  -8  -2  -4  183.14   30.00   0
  -6 -10  -4  296.99   30.68   0
  -5 -14  -7   66.06   38.73   0
  -5  -9  -3   21.52   24.89   0
  -5  -4  -1 1383.29   38.75   0
  -3 -11  -4    2.35   33.79   0
  -3  -6  -1  799.07   32.87   0
  -3  -2   0 3827.76   65.12   0
  -2  -8  -2  699.71   36.99   0
  -2  -6  -1 1405.25   43.24   0
  -2   1   0 1560.72   61.57   0
   0 -10  -4  329.28   43.37   0
  -8  -7  -4  435.92   29.61   0
  -7 -12  -6   80.48   33.88   0
  -7  -9  -4  790.82   39.36   0
  -6  -6  -2  294.52   27.25   0
  -6   0  -2  774.64   35.86   0
  -5 -12  -5  223.03   38.01   0
  -5   2  -2  998.03   46.52   0
  -4 -11  -4  650.34   41.37   0
  -2  -3   0 2321.30   54.97   0
   2   0  -1 2345.81   68.06   0
  -9  -6  -5  -16.31   26.26   0
  -9  -5  -5  479.10   33.70   0
  -9  -4  -5  425.22   33.02   0
  -7  -7  -3  672.80   34.50   0
  -5   0  -1 1974.61   49.51   0
  -4  -8  -2  796.13   34.74   0
  -3   0   0  242.66   24.22   0
  -2 -11  -4 1075.59   51.33   0
  -7 -11  -5  558.86   34.49   0
  -4  -6  -1  680.66   31.09   0
  -3  -3   0 1627.89   43.23   0
  -1  -3   0   27.28   17.78   0
  -9  -3  -5    2.71   26.70   0
  -8 -10  -5  447.46   35.16   0
  -8  -8  -4  613.64   34.60   0
  -7   0  -3  829.81   40.35   0
  -6 -13  -6   14.88   34.81   0
  -6   2  -3  333.79   39.71   0
  -5  -5  -1   13.96   17.04   0
  -3 -10  -3  768.65   42.14   0
   1  -8  -3 1880.09   84.55   0
  -6  -9  -3  711.97   37.10   0
  -6  -7  -2 1107.52   38.72   0
  -5  -8  -2  822.65   37.29   0
  -4 -10  -3  734.20   39.33   0
  -4   2  -1  962.62   45.78   0
  -9  -8  -5  386.85   30.30   0
  -8  -4  -3   25.30   26.18   0
  -7 -10  -4  336.97   32.77   0
  -7  -8  -3  450.30   35.85   0
  -7  -4  -2  231.83   24.71   0
  -2 -10  -3  275.26   33.70   0
   0   3  -1  203.08   28.74   0
  -9  -2  -5  234.35   36.45   0
  -8  -3  -3  306.12   29.34   0
  -7  -2  -2 1338.56   42.45   0
  -6  -3  -1  301.56   25.18   0
  -4  -2   0 1409.95   38.81   0
  -4  -1   0  575.35   28.01   0
  -3  -4   0  846.42   32.85   0
  -2  -4   0 5184.57   78.53   0
   0  -9  -3  809.54   50.30   0
  -8  -9  -4   52.73   29.25   0
  -8  -6  -3  552.03   30.88   0
  -6  -4  -1  535.79   28.08   0
  -6   1  -2   59.75   27.24   0
  -5  -6  -1  830.50   32.47   0
  -4  -3   0 4058.00   62.07   0
  -3  -7  -1  965.14   35.45   0
  -1 -11  -4    4.22   34.79   0
  -9  -5  -4  374.92   33.77   0
  -8  -2  -3  420.25   33.81   0
  -7  -6  -2  370.72   30.22   0
  -5   1  -1  386.09   29.26   0
  -4  -7  -1   46.48   20.47   0
  -3  -9  -2 1953.37   52.27   0
   1   2  -1 4254.81   87.07   0
  -9  -4  -4    4.97   26.65   0
  -8  -7  -3   24.41   25.45   0
  -7  -9  -3    1.60   28.46   0
  -7  -1  -2  570.83   33.03   0
  -6  -8  -2  358.02   31.99   0
  -6  -1  -1  970.65   35.41   0
  -5 -14  -6  224.51   39.84   0
  -4 -14  -6  124.62   44.39   0
  -4 -13  -5  375.49   40.53   0
  -4  -4   0  164.71   19.01   0
  -9  -7  -4   24.52   27.92   0
  -9  -3  -4  252.84   32.11   0
  -8   0  -4  440.41   39.26   0
  -6 -10  -3  116.02   27.97   0
  -5 -13  -5    7.78   33.90   0
  -4 -12  -4  127.26   36.86   0
  -3 -13  -5   -0.09   41.62   0
  -7 -11  -4   11.81   26.78   0
  -7  -7  -2   22.71   26.51   0
  -7   1  -3   16.49   30.35   0
  -5 -12  -4  365.15   40.58   0
  -5  -9  -2  929.88   38.65   0
  -5  -7  -1 1270.29   39.50   0
  -3 -12  -4  594.46   46.51   0
  -3  -5   0 2174.45   48.57   0
  -2  -9  -2   87.82   27.07   0
  -2   4  -2  272.92   46.08   0
   3  -4  -3 2349.32   79.23   0
  -9  -8  -4   98.99   26.01   0
  -8 -10  -4  274.40   33.52   0
  -8  -8  -3  310.52   31.22   0
  -8  -1  -3  148.49   33.28   0
  -6 -13  -5  471.24   42.13   0
  -6  -6  -1  509.43   30.73   0
  -5  -3   0    7.79   16.05   0
  -5  -2   0 1541.45   39.08   0
  -4 -11  -3   13.25   32.28   0
  -4  -5   0  527.67   27.52   0
  -2  -5   0    3.22   15.92   0
   3  -6  -4 2706.57   97.69   0
 -10  -4  -5   45.30   32.14   0
  -9  -2  -4  359.56   39.17   0
  -7   0  -2   61.40   28.78   0
  -6 -12  -4  118.14   35.46   0
  -6  -9  -2  215.06   30.63   0
  -6   0  -1    5.33   22.01   0
  -5 -11  -3  584.18   40.22   0
  -5  -4   0 1101.41   35.19   0
  -3 -11  -3  751.51   43.54   0
  -1   4  -2 1480.38   61.03   0
  -7 -10  -3  230.03   30.39   0
  -7  -8  -2  554.34   36.90   0
  -7  -4  -1  704.08   32.31   0
   0  -6  -1  559.12   41.84   0
  -9  -5  -3  158.43   28.54   0
  -8  -9  -3  523.84   36.62   0
  -8  -6  -2  502.73   30.35   0
  -7  -5  -1   30.50   24.20   0
  -6  -7  -1  103.13   27.30   0
  -9  -4  -3  455.26   33.22   0
  -7  -2  -1   89.35   26.11   0
  -5  -8  -1   17.75   24.12   0
  -5  -5   0 1455.73   37.80   0
  -4 -10  -2  943.63   43.96   0
  -3  -6   0  816.30   33.11   0
   0  -8  -2 1206.47   56.16   0
  -9  -7  -3  335.18   32.31   0
  -9  -3  -3  177.55   32.37   0
  -8  -2  -2   21.60   25.14   0
  -7  -6  -1  813.61   37.16   0
  -4  -6   0 1045.45   35.65   0
  -3 -10  -2  228.70   33.64   0
  -8   0  -3  110.47   34.15   0
  -7  -9  -2  486.86   34.73   0
  -6  -3   0 1797.09   42.64   0
  -2  -8  -1 1840.73   50.85   0
 -10  -5  -4  214.74   29.37   0
  -9  -8  -3  242.60   30.03   0
  -8 -10  -3   54.17   30.45   0
  -7 -11  -3  354.50   37.00   0
  -6  -8  -1  888.68   37.70   0
  -6  -4   0  993.30   33.62   0
  -6   2  -2  244.57   34.48   0
  -5 -13  -4  399.37   40.97   0
  -5  -6   0  195.96   22.90   0
  -4 -14  -5   91.20   46.07   0
 -10  -4  -4  355.80   33.23   0
  -8  -8  -2  128.54   29.40   0
  -7  -7  -1  936.94   40.64   0
  -7  -1  -1  249.31   27.26   0
  -6 -10  -2  649.83   35.80   0
  -6  -5   0    6.17   20.34   0
  -5   2  -1  358.99   33.96   0
  -4 -13  -4   97.12   37.44   0
  -2  -6   0 1301.53   41.34   0
   1   1  -1 1301.24   54.25   0
  -9  -2  -3   25.79   30.53   0
  -8  -1  -2  447.55   35.76   0
  -6 -13  -4   42.22   34.47   0
  -6   1  -1  865.58   39.74   0
  -5 -12  -3   95.27   37.24   0
  -5   3  -2    5.82   35.17   0
  -7   1  -2  744.87   41.26   0
  -4 -12  -3  543.86   42.76   0
  -4  -7   0 1205.93   38.58   0
  -3  -2   1  459.55   25.31   0
  -2 -10  -2  786.30   43.31   0
 -10  -3  -4   50.36   36.50   0
  -9  -5  -2  484.79   33.86   0
  -8  -5  -1  701.20   33.55   0
  -7 -10  -2   48.53   26.75   0
  -6 -12  -3  325.36   39.11   0
  -6  -6   0 1213.75   40.07   0
  -4  -3   1   82.62   17.10   0
  -4  -2   1 1644.20   40.00   0
  -3 -13  -4  537.28   48.35   0
  -3  -9  -1  151.63   28.55   0
  -3  -7   0  338.07   26.72   0
  -3  -3   1 3690.80   60.05   0
  -3  -1   1   33.11   14.57   0
  -9  -4  -2   81.25   30.31   0
  -8  -9  -2   81.26   30.92   0
  -8  -3  -1   26.88   26.12   0
  -7  -8  -1   88.85   30.19   0
  -5  -7   0  339.88   28.70   0
  -3 -12  -3   32.37   41.07   0
  -2  -2   1 4031.14   70.75   0
   1  -7  -2  110.89   48.67   0
  -9  -7  -2   -2.63   24.15   0
  -8  -6  -1  114.81   24.41   0
  -7   0  -1  847.91   39.41   0
  -6  -9  -1  371.33   30.57   0
  -5 -11  -2  179.86   33.57   0
  -4 -11  -2  371.01   38.14   0
  -4  -4   1 1628.21   39.66   0
  -3  -4   1  686.70   29.87   0
  -3   2   0 4457.23   99.75   0
 -10  -5  -3  315.71   30.68   0
  -9  -3  -2   73.06   28.98   0
  -9  -1  -3  457.09   43.28   0
  -7  -5   0  855.99   35.18   0
  -7  -4   0  760.34   31.84   0
  -5   1   0 1408.17   43.90   0
  -2  -3   1   18.39   15.23   0
  -2  -1   1 5771.94   88.50   0
   0 -10  -3  939.70   58.10   0
 -10  -4  -3   13.94   28.17   0
  -9  -8  -2  352.00   32.38   0
  -8  -7  -1  115.10   27.10   0
  -8  -2  -1  513.36   32.94   0
  -6  -7   0 1054.31   37.21   0
  -6   0   0 1355.43   42.11   0
  -5  -4   1  349.04   23.62   0
  -5  -3   1 3109.98   51.27   0
  -5  -2   1 2396.76   46.00   0
  -1 -11  -3  775.60   49.72   0
   2   0  -2 1275.19   46.73   0
  -8 -10  -2  305.10   34.20   0
  -8   0  -2 1157.63   48.26   0
  -7  -9  -1  212.12   29.87   0
  -7  -6   0  118.58   26.94   0
  -7  -2   0  783.86   34.51   0
  -4  -5   1 2203.05   46.46   0
  -3 -11  -2  262.73   37.38   0
  -2  -9  -1  928.59   42.28   0
  -8  -8  -1  467.10   34.18   0
  -5 -14  -4   70.48   39.46   0
  -5  -8   0  664.95   33.79   0
  -5  -5   1  314.63   24.40   0
  -3  -5   1  414.68   25.52   0
  -2  -4   1 3982.79   67.08   0
   0   2  -1 2195.97   78.76   0
 -10  -3  -3  231.50   37.50   0
  -5  -1   1  287.75   20.88   0
  -4 -10  -1   44.10   29.22   0
  -4   0   1  632.99   29.61   0
  -4   3  -1   28.64   35.71   0
  -8  -1  -1  537.85   35.80   0
  -7  -7   0  361.90   32.71   0
  -7  -1   0 1041.44   37.84   0
  -6 -13  -3  155.00   37.91   0
  -6  -8   0   23.06   25.93   0
  -6  -4   1 1168.70   35.30   0
  -6  -3   1   56.02   18.74   0
  -5 -13  -3  132.59   38.27   0
  -4   2   0   13.78   22.95   0
   0  -7  -1   60.37   29.52   0
  -9  -4  -1  332.40   32.47   0
  -4 -13  -3  408.36   47.14   0
  -4  -6   1   98.56   20.45   0
  -2   0   1 2323.91   61.84   0
  -1 -10  -2   71.40   33.51   0
   2  -1  -2 5266.26   99.22   0
  -9  -7  -1  355.63   30.66   0
  -8  -9  -1  174.31   33.55   0
  -8  -5   0   76.16   23.31   0
  -6 -12  -2   -1.59   34.96   0
  -6  -5   1  863.34   33.59   0
  -6  -2   1 1035.36   32.53   0
  -5 -12  -2  502.08   43.29   0
  -5  -6   1 1109.92   35.35   0
  -3 -10  -1  394.25   36.20   0
  -9  -3  -1  635.22   36.82   0
  -9  -1  -2  261.62   39.33   0
  -8  -6   0  470.57   29.88   0
  -8  -3   0  668.54   35.30   0
  -7  -8   0  829.98   39.08   0
  -3  -6   1 3703.52   60.75   0
  -2  -5   1 2230.78   50.97   0
 -10  -4  -2  327.14   33.18   0
  -7   1  -1  571.23   36.64   0
  -6  -6   1   36.72   25.35   0
  -6   2  -1  976.57   45.09   0
  -4 -12  -2   -2.25   34.12   0
   0  -9  -2   96.00   35.00   0
  -8  -7   0  270.92   30.47   0
  -6  -9   0  560.26   33.29   0
  -6   1   0 1307.04   43.38   0
  -5 -11  -1  160.21   35.80   0
  -5  -7   1  469.20   32.25   0
  -1  -2   1 4305.00   84.13   0
   1  -5  -1   29.22   40.38   0
 -10  -3  -2  266.85   35.64   0
  -8  -2   0  182.74   28.08   0
  -7  -5   1  140.22   26.02   0
  -7  -4   1  148.94   22.80   0
  -7  -3   1  672.34   30.34   0
  -7   0   0  141.00   26.10   0
  -4  -7   1  612.55   30.37   0
  -3 -13  -3  225.18   44.80   0
  -3   4  -3   86.27   44.72   0
  -2  -8   0   60.80   25.21   0
  -9  -2  -1  115.90   28.75   0
  -8   0  -1    9.53   29.78   0
  -7  -9   0  163.25   29.10   0
  -6  -7   1  663.90   35.03   0
  -4 -11  -1  360.52   37.54   0
  -3   1   1 4208.24   79.99   0
   1  -9  -3   16.55   55.82   0
  -8  -8   0    9.13   27.39   0
  -7  -6   1  944.08   36.97   0
  -3 -12  -2  670.17   47.60   0
  -3  -9   0  402.67   34.45   0
  -5 -14  -3  327.61   45.03   0
  -5   2   0 1623.38   52.29   0
  -4  -3   2 1568.58   37.80   0
  -4  -2   2 2019.42   42.34   0
  -2 -10  -1    2.08   31.73   0
  -1  -4   1  396.86   29.03   0
  -1  -1   1 1389.66   53.57   0
  -9  -6   0   19.74   28.24   0
  -9  -4   0  312.67   32.37   0
  -8  -1   0  145.59   28.54   0
  -7  -7   1  329.52   32.05   0
  -6   0   1  579.10   29.79   0
  -5 -10   0   13.99   30.19   0
  -5  -8   1   20.80   23.17   0
  -5  -4   2  839.60   30.21   0
  -5  -3   2  308.64   22.03   0
  -4  -4   2  101.19   18.87   0
 -10  -4  -1  213.94   30.45   0
 -10  -2  -2   -5.94   36.37   0
  -9  -7   0  127.08   27.22   0
  -8  -9   0  185.63   30.90   0
  -6  -8   1  620.08   35.55   0
  -5  -2   2  497.51   24.27   0
  -3  -3   2  986.90   33.55   0
  -9  -3   0    9.33   28.62   0
  -9  -1  -1  203.44   37.18   0
  -7 -10   0   98.81   30.46   0
  -7  -1   1   31.99   23.70   0
  -6  -4   2   45.70   21.39   0
  -5  -5   2 1030.20   33.73   0
  -5   1   1 2094.72   49.66   0
  -4 -10   0  679.93   39.37   0
  -4  -5   2 1720.01   41.87   0
  -4  -1   2   77.88   15.78   0
  -3 -11  -1  383.96   39.86   0
  -3  -4   2 4679.79   65.95   0
  -8  -6   1   -3.12   23.52   0
  -7  -8   1   48.23   27.63   0
  -6 -12  -1  226.06   36.39   0
  -6  -5   2  536.56   29.77   0
  -6  -3   2 1264.51   34.50   0
  -5 -12  -1  169.80   37.08   0
 -10  -3  -1    0.71   28.80   0
  -8  -7   1  233.98   28.22   0
  -6  -2   2 1697.48   38.57   0
  -5  -6   2   14.11   22.13   0
  -5   3  -1 1368.37   64.07   0
  -4 -13  -2  398.42   44.93   0
  -3  -1   2 6678.06   81.94   0
   1   1  -2  171.94   22.27   0
  -9  -2   0  331.58   32.17   0
  -7   1   0  405.65   33.71   0
  -6  -6   2  906.03   35.62   0
  -3  -8   1   92.65   25.55   0
  -2  -9   0  690.21   38.60   0
  -8  -2   1  404.61   29.61   0
  -7  -4   2  969.49   33.94   0
  -6  -9   1  121.11   26.54   0
  -4 -12  -1  666.14   45.18   0
  -2  -7   1 1292.36   42.87   0
  -2   1   1 1237.98   52.94   0
  -1   3  -2   41.07   22.56   0
   0  -8  -1  887.98   50.84   0
  -8  -8   1  287.25   34.28   0
  -8   0   0  640.87   38.52   0
  -7  -9   1  469.89   31.06   0
  -7  -5   2  286.56   27.11   0
  -7  -3   2  330.18   24.81   0
  -6 -11   0   93.73   33.48   0
  -5 -11   0  590.36   41.17   0
  -3 -10   0   22.42   29.27   0
  -1 -11  -2  273.71   40.88   0
 -10  -2  -1  306.45   38.22   0
  -9  -6   1  385.74   32.55   0
  -7  -6   2  129.47   28.74   0
  -7   0   1  913.13   36.65   0
  -7   2  -1   45.23   32.18   0
  -6  -7   2  164.65   27.72   0
  -6   1   1   98.82   23.07   0
  -6   2   0   61.11   26.61   0
  -5  -7   2  765.14   33.62   0
  -4  -9   1  322.42   32.28   0
  -2  -2   2 4910.88   74.29   0
 -10  -4   0   66.25   28.13   0
  -9  -4   1   59.26   26.86   0
  -3  -6   2   66.01   19.02   0
  -2  -4   2   18.08   15.41   0
   0  -6   0 1825.42   62.29   0
  -9  -1   0  390.48   36.13   0
  -8  -1   1  813.21   35.74   0
  -7  -7   2  575.14   35.09   0
  -4 -11   0   48.13   34.03   0
  -4  -7   2  172.09   24.01   0
  -3   0   2 2488.50   53.12   0
 -10  -3   0  305.62   32.06   0
  -9  -3   1  465.94   32.78   0
  -8  -5   2  403.68   27.56   0
  -8  -4   2   -0.26   22.93   0
  -1  -6   1  957.58   40.42   0
  -1   0   1 6580.54  126.40   0
  -8  -6   2  432.30   31.36   0
  -7 -10   1  212.80   34.13   0
  -6  -8   2   75.54   25.26   0
  -5 -13  -1  336.01   39.75   0
  -5 -10   1  734.58   40.14   0
  -3 -12  -1    8.41   39.14   0
  -2  -5   2  113.37   19.37   0
  -2  -1   2   68.98   15.54   0
  -1 -10  -1 1565.97   56.79   0
  -7  -1   2 1064.95   36.51   0
  -6 -12   0  136.16   34.86   0
  -6   0   2  567.38   28.24   0
  -5  -4   3   11.78   17.24   0
  -5  -3   3  919.61   30.59   0
  -4   2   1 3345.82   72.10   0
  -3  -9   1  773.69   39.22   0
  -2  -8   1 1008.10   41.39   0
   0   2  -2 2299.65   68.26   0
  -9  -2   1  362.91   32.47   0
  -8  -7   2   63.41   27.76   0
  -7  -8   2  350.85   30.97   0
  -6  -4   3  715.71   30.81   0
  -5  -5   3 1314.63   37.45   0
  -4  -3   3  731.90   26.86   0
   0 -10  -2 1311.39   65.81   0
 -10  -2   0  176.33   37.89   0
  -8  -2   2  587.47   33.24   0
  -6  -5   3   47.96   23.00   0
  -5   2   1  132.85   26.90   0
  -4 -10   1  263.38   34.74   0
  -4  -2   3  379.70   22.62   0
  -2 -10   0  829.48   46.39   0
  -8  -8   2   91.61   29.50   0
  -8   0   1   69.25   30.59   0
  -8   1   0  323.11   36.34   0
  -7   1   1  826.06   38.59   0
  -6  -2   3   24.80   16.15   0
  -4 -13  -1   68.20   42.03   0
  -4  -5   3  786.55   30.86   0
  -3 -11   0  505.63   45.35   0
   2  -2  -3 4752.07   91.70   0
  -9  -4   2  552.40   33.50   0
  -9   0   0   66.98   35.41   0
  -7  -9   2   -8.04   26.53   0
  -7  -5   3  608.18   31.78   0
  -7  -4   3   36.12   22.06   0
  -6 -11   1  276.00   36.67   0
  -6  -6   3  235.62   27.23   0
  -6   3  -1  114.31   39.23   0
  -5  -6   3 1006.97   36.28   0
  -5  -1   3  412.00   22.40   0
  -5   1   2  146.49   22.07   0
  -7  -6   3  373.88   31.54   0
  -7   0   2  581.13   31.85   0
  -7   2   0  743.85   43.68   0
  -4  -1   3 2290.13   45.31   0
  -3  -4   3   84.84   17.83   0
  -1   3  -3 1805.68   60.11   0
 -10  -3   1   35.95   27.74   0
  -9  -3   2  172.89   29.27   0
  -8  -1   2   26.50   24.37   0
  -6  -7   3  766.47   34.91   0
  -5 -11   1   16.69   31.96   0
  -4 -12   0  126.57   38.85   0
  -4  -6   3  372.58   26.05   0
  -4   3   0  761.09   52.27   0
  -3  -2   3 1102.73   33.36   0
  -5  -7   3   24.55   22.87   0
  -3  -8   2 1452.82   46.71   0
  -3   1   2   28.75   19.39   0
  -2   0   2 1264.32   42.64   0
   0  -7   0 2278.90   69.27   0
  -8  -6   3  175.49   28.14   0
  -8  -5   3  188.05   23.90   0
  -8  -4   3  891.79   35.01   0
  -7  -7   3   24.48   24.60   0
  -6   1   2 1960.64   46.50   0
  -6   2   1 1889.92   53.93   0
  -4  -9   2  631.98   36.84   0
  -3 -10   1  474.56   38.31   0
  -3  -5   3 1601.40   40.33   0
   1   0  -2 2893.75   76.66   0
  -9  -2   2   52.32   27.49   0
  -6 -10   2  234.87   33.67   0
  -3  -1   3  392.01   23.54   0
  -2  -9   1  198.00   31.52   0
   0  -9  -1 1160.93   58.96   0
   2  -4  -3   21.90   26.70   0
 -10  -2   1   47.39   30.48   0
  -8  -7   3  416.19   32.38   0
  -7  -1   3  213.50   25.94   0
  -6  -8   3  414.71   30.12   0
  -5 -13   0   -8.79   37.03   0
  -5 -10   2  330.39   36.11   0
  -5   3   0  571.52   43.69   0
  -4 -11   1  761.69   42.90   0
  -4   0   3  553.61   25.12   0
  -2  -7   2  561.50   31.05   0
  -1  -4   2 2480.73   56.85   0
  -8  -2   3    2.34   23.70   0
  -7  -8   3  187.90   28.07   0
  -1  -2   2   23.63   16.19   0
   0   1  -1 3742.29  119.20   0
  -9   0   1  224.97   37.18   0
  -8   0   2  403.64   32.83   0
  -8   1   1  104.85   31.30   0
  -6  -4   4  411.05   26.77   0
  -6  -3   4  299.45   24.01   0
  -5  -4   4 1206.43   35.60   0
  -5  -3   4  932.05   30.06   0
  -7   1   2   -3.52   24.74   0
  -6  -5   4  864.66   35.64   0
  -5 -12   1  300.91   37.12   0
  -5  -5   4   35.65   22.50   0
  -5  -2   4   35.08   16.57   0
  -3 -12   0  298.71   43.34   0
  -2  -3   3 1146.52   36.01   0
  -9  -1   2  584.60   34.72   0
  -7  -5   4   -4.38   23.54   0
  -7  -4   4  663.80   29.85   0
  -6  -6   4  330.24   28.24   0
  -4 -10   2  407.75   37.04   0
  -4  -4   4  107.72   19.62   0
  -4  -3   4  384.49   22.86   0
  -3  -9   2   64.86   27.75   0
  -2  -4   3 2366.86   48.35   0
  -9  -3   3  151.36   27.95   0
  -8  -1   3  489.93   31.06   0
  -7   0   3  186.58   24.75   0
  -4  -2   4  796.61   28.56   0
  -3   0   3  601.13   27.70   0
  -2  -2   3  141.24   18.70   0
  -7   2   1    5.53   27.52   0
  -5  -9   3  488.60   34.99   0
  -4  -5   4 1364.19   38.21   0
  -2  -8   2  260.89   30.43   0
  -2  -5   3  732.10   31.08   0
 -10  -2   2  267.89   31.46   0
  -9  -2   3  567.71   33.87   0
  -8  -5   4  399.50   26.70   0
  -8  -4   4   57.26   20.74   0
  -7  -7   4  453.48   29.85   0
  -6  -7   4   16.53   22.94   0
  -5 -11   2  449.40   37.19   0
  -5   2   2 1850.12   48.72   0
  -3 -11   1   30.02   35.64   0
  -8  -6   4  192.68   27.23   0
  -4 -12   1  195.06   40.88   0
  -4  -6   4  471.19   28.87   0
  -4  -1   4  650.62   26.66   0
  -4   2   2  563.44   31.98   0
  -1  -1   2  212.12   21.46   0
  -6 -10   3  367.15   35.87   0
  -6   1   3   65.70   20.76   0
  -3  -3   4  679.75   27.52   0
  -2  -1   3 4753.77   70.37   0
  -1  -6   2   25.88   20.08   0
  -8  -2   4  377.69   28.81   0
  -7  -8   4   92.69   26.57   0
  -6  -8   4  510.50   34.06   0
  -4  -9   3    5.53   28.44   0
  -3  -2   4   32.89   14.75   0
  -1   0   2 2996.09   82.00   0
  -1   4   0  857.28   53.03   0
   5  -3   4  382.83   40.76   0
   5  -3   5  424.12   47.16   0
   5   1  -3  419.63   25.11   0
   6  -1  -1   84.33   21.43   0
   8   6  -3  200.09   34.29   0
   3   1  -3  384.60   25.59   0
   6   9  -3   20.48   46.80   0
   8   7  -3  409.61   41.12   0
   2   0  -2 1255.89   42.79   0
   5   5  -4   39.02   27.24   0
   7  -2   2  527.77   37.44   0
   8  -1   1  503.87   37.64   0
   9   0   1  508.83   37.88   0
   9   3  -2  168.69   31.46   0
  -1   1   1 3149.17   91.16   0
   2   2  -3  135.96   23.71   0
   6   5  -4  888.35   40.79   0
   7   9  -3  370.32   53.59   0
   8   8  -3  116.23   39.17   0
   9  -1   4  285.04   43.98   0
   2   6  -3   56.21   32.11   0
   3  -3   2  389.12   37.09   0
   4  -1  -2 1458.13   40.78   0
   4   4  -4   97.95   22.85   0
   4   5  -4 1325.01   46.03   0
   5  -1  -2  163.99   21.81   0
   5   6  -4  389.47   37.13   0
   6   6  -4  344.44   34.88   0
   7   0  -2  547.72   32.92   0
   8   0  -1   84.93   24.52   0
   8   1  -2   11.22   26.68   0
   8   3  -3  405.54   31.01   0
   9  -1   3   -7.75   34.85   0
   2  -2   0 1542.52   53.44   0
   6   3  -4  291.32   26.66   0
   7  -2   1   44.98   29.97   0
   7  -1  -1  796.08   34.55   0
   9   1  -1   10.74   23.57   0
   3  -1  -2   30.87   16.85   0
   3   8  -3  200.66   43.51   0
   4  -2  -1 3292.44   60.11   0
   4   0  -3  572.93   28.36   0
   5   0  -3  461.04   26.81   0
   5   2  -4   36.07   18.16   0
   7   1  -3  214.58   29.78   0
   7   5  -4    4.92   29.29   0
   7   6  -4  290.47   38.61   0
   8  -2   4  461.67   47.85   0
   8  -1   0  288.12   33.25   0
   9   2  -2   58.56   28.82   0
   1   1  -2  187.25   25.32   0
   4   2  -4  778.25   31.78   0
   4   6  -4  411.84   37.62   0
   5  -2  -1  147.77   21.92   0
   5   7  -4  702.45   49.50   0
   6  -1  -2 2011.10   47.05   0
   6   7  -4   12.88   36.33   0
   8  -2   3  296.78   40.52   0
   8   2  -3    7.35   27.49   0
   9  -1   2  357.11   38.25   0
   9   4  -3   55.08   28.49   0
   4  -3   1   41.53   23.85   0
   6   2  -4 1683.54   43.51   0
   7   7  -4  452.96   40.71   0
   3  -2  -1  153.75   19.97   0
   3   0  -3  574.12   29.51   0
   3   4  -4 1646.93   49.66   0
   5  -3   1 1402.58   49.12   0
   7  -2   0  711.25   39.70   0
   8  -2   2  207.88   36.17   0
   9   3  -3  151.31   30.73   0
   2  -3   3  211.23   49.10   0
   2   1  -3 4795.18   79.19   0
   5   1  -4  834.52   32.77   0
   6  -3   2 1129.01   49.46   0
   7   2  -4   -7.25   24.86   0
   8   6  -4  231.09   36.72   0
   9  -1   1  117.53   32.80   0
   3   5  -4  188.41   31.00   0
   6   1  -4  574.54   31.37   0
   6   8  -4  481.76   51.74   0
   7  -1  -2   -6.49   23.12   0
   7   0  -3  199.64   27.89   0
   7   8  -4   79.08   46.92   0
   8   1  -3  536.21   36.41   0
   8   7  -4    1.95   36.22   0
   3   2  -4   31.82   17.80   0
   4   1  -4  657.91   29.51   0
   4   7  -4    5.12   32.79   0
   8  -2   1  467.25   39.84   0
   8   3  -4   65.63   26.36   0
   5  -1  -3 1472.52   40.60   0
   5   8  -4   73.56   43.62   0
   6  -3   1  116.45   31.25   0
   9  -1   0  111.75   34.77   0
   2   7  -3 1645.00   75.25   0
   4  -1  -3   92.29   19.62   0
   5  -3   0  580.09   33.52   0
   6  -1  -3   77.84   23.77   0
   7  -3   3  639.03   50.73   0
   7   1  -4  310.82   30.14   0
   8   2  -4  327.68   31.08   0
   8   8  -4  196.42   44.38   0
   3   6  -4  591.30   43.18   0
   4  -2  -2  568.07   28.50   0
   6   4  -5  342.98   32.86   0
   7  -3   2    3.39   37.90   0
   8  -2   0   12.99   31.89   0
   2  -1  -2 5419.85   85.31   0
   5   4  -5  464.53   34.87   0
   6  -2  -2  322.32   26.79   0
   6   0  -4  131.91   24.13   0
   6   5  -5   76.85   30.80   0
   8  -1  -2  558.86   33.15   0
   8   0  -3  813.27   36.94   0
   9  -2   3  229.86   45.32   0
   9   0  -2  291.17   30.04   0
   9   1  -3  164.42   31.39   0
   0   8   0  243.90   52.98   0
   1  -2   1   59.00   38.81   0
   3   1  -4 1814.49   45.42   0
   4   0  -4  185.38   21.78   0
   5   5  -5 1012.45   44.49   0
   6   6  -5  357.49   42.48   0
   7   5  -5  509.23   38.21   0
   9  -2   2  304.00   40.53   0
   9  -1  -1  365.82   36.14   0
  -1   2   1  320.63   33.11   0
   6   2  -5   62.57   23.15   0
   7  -3   1  661.47   42.90   0
   7  -1  -3  986.97   38.06   0
   7   6  -5  119.12   36.96   0
   8   1  -4  369.50   33.88   0
   3  -1  -3 2939.69   57.00   0
   4   4  -5 1169.01   44.56   0
   5   6  -5  263.27   40.61   0
   7   0  -4  822.33   37.90   0
   7   2  -5  555.70   31.45   0
   8  -2  -1  543.32   37.58   0
   8   5  -5    0.20   33.25   0
   9  -2   1   43.36   34.77   0
   9   2  -4   25.51   28.86   0
  -1   1   2    7.36   15.80   0
   2  -2  -1 3733.97   74.95   0
   2   0  -3 3870.14   70.16   0
   3  -2  -2 3251.01   60.45   0
   8   3  -5  571.99   36.99   0
   8   6  -5  245.94   37.81   0
   0  -1   2  203.97   43.50   0
   4   2  -5  131.21   21.08   0
   4   5  -5   35.07   28.28   0
   5   1  -5 1331.89   38.37   0
   6  -3  -1  561.34   37.74   0
   6   1  -5  351.59   28.67   0
   6   7  -5  426.04   49.29   0
   7  -3   0   53.88   31.58   0
   7   7  -5   26.54   40.30   0
   5  -2  -3  653.39   31.48   0
   5  -1  -4  114.52   21.56   0
   6  -2  -3  212.29   26.09   0
   6  -1  -4  948.54   36.57   0
   8  -3   2  371.77   46.30   0
   8  -1  -3   16.93   25.16   0
   8   0  -4   10.85   27.83   0
   8   2  -5   91.92   25.96   0
   9  -2   0  482.70   41.18   0
   2   3  -4 1665.44   51.97   0
   3   0  -4 2184.65   49.37   0
   3   7  -4  857.00   54.88   0
   4  -2  -3 1358.61   39.41   0
   8  -3   1   24.50   37.55   0
   9   1  -4  155.21   32.80   0
   1   0  -2 3140.26   79.36   0
   1   4  -3  337.05   41.84   0
   2   4  -4   54.55   26.07   0
   4  -1  -4 1617.75   42.00   0
   4   1  -5  544.20   27.91   0
   5   7  -5  145.39   43.83   0
   7  -3  -1  300.66   35.29   0
   7  -1  -4  217.62   29.65   0
  -1   5   1   30.50   26.42   0
   4   6  -5  512.07   43.68   0
   5  -4   3   63.58   40.76   0
   5   0  -5   37.32   20.11   0
   6   0  -5 1342.23   40.40   0
   8   1  -5   75.81   27.42   0
   9  -2  -1   51.66   33.91   0
  -1   3   1 4193.69   98.28   0
   7   0  -5    4.97   26.23   0
   8  -3   0  424.69   40.87   0
   3   3  -5  204.78   27.47   0
   4  -3  -2  164.80   21.22   0
   6  -4   3  843.30   57.05   0
   6   4  -6  525.53   37.60   0
   7   4  -6  103.59   33.02   0
   9  -1  -3  282.02   34.16   0
   9   0  -4  367.62   33.45   0
   2   5  -4 1067.37   53.07   0
   3   4  -5  659.72   38.20   0
   4  -4   2  136.34   37.77   0
   4   0  -5 2296.99   48.96   0
   5  -4   4  978.11   65.82   0
   6   5  -6  505.21   40.64   0
   7  -3  -2  566.45   38.28   0
   7   5  -6   43.52   34.19   0
   8  -1  -4  486.88   33.55   0
   2   1  -4 1128.22   40.78   0
   5  -2  -4  531.20   29.58   0
   5   3  -6 1772.59   49.62   0
   5   4  -6  378.75   34.73   0
   6  -2  -4  462.99   31.75   0
   8  -3  -1  425.69   40.94   0
   8   0  -5  413.54   35.10   0
   8   5  -6  214.95   36.32   0
   9  -2  -2  234.75   35.09   0
   0  -1   3 3057.06  108.42   0
   3  -1  -4   39.39   17.75   0
   5  -4   0  415.60   35.54   0
   5  -1  -5 1076.96   36.86   0
   6  -1  -5  627.84   34.01   0
   6   1  -6  493.20   29.40   0
   7   6  -6  317.05   40.05   0
   9  -3   1  251.99   43.28   0
   2  -1  -3  446.73   26.86   0
   3   1  -5 1848.11   45.85   0
   5  -3  -3  160.92   23.34   0
   5   5  -6   77.49   34.29   0
   6  -4   0 1120.97   48.54   0
   6  -3  -3  913.98   36.44   0
   6   6  -6   39.21   40.76   0
   7  -2  -4  200.13   27.46   0
   7  -1  -5  810.11   38.63   0
   7   1  -6   33.94   23.30   0
   8   2  -6  311.65   31.48   0
  -1   2   2 4133.72   89.39   0
   2  -2  -2  431.44   28.38   0
   3   5  -5 1165.71   51.13   0
   4  -4   4    9.37   49.67   0
   4  -2  -4 2710.94   52.65   0
   4   7  -5  769.33   52.44   0
   5   1  -6  328.51   26.62   0
   7  -4   1  552.72   48.81   0
   8  -3  -2   65.60   33.76   0
   9  -3   0  144.36   37.53   0
   4  -4   0 1086.70   44.31   0
   6  -4  -1  150.86   34.00   0
   6   0  -6  177.34   26.51   0
   7  -4   0   32.56   39.00   0
   7   7  -6  120.35   51.19   0
   8   1  -6  472.80   32.88   0
   3  -3  -2 1473.24   42.59   0
   4  -3  -3 2259.15   48.15   0
   4  -1  -5  309.10   25.17   0
   4   3  -6   -5.59   24.75   0
   7   0  -6  943.87   38.40   0
   8  -2  -4  476.02   31.41   0
   8  -1  -5  227.47   29.56   0
   9  -3  -1  215.49   37.55   0
   1   1  -3  209.57   26.22   0
   4   4  -6  545.20   36.59   0
   5   0  -6  683.96   33.79   0
   5   6  -6  618.56   47.99   0
   2   0  -4 1008.72   37.41   0
   4   1  -6 2265.94   48.68   0
   6  -2  -5  208.88   28.17   0
   8  -4   1  158.74   44.84   0
   8  -3  -3  581.66   39.34   0
   8   0  -6   49.33   27.90   0
   2   6  -4  922.32   57.56   0
   4  -4  -1    7.01   22.19   0
   5  -2  -5 1687.29   43.69   0
   6  -4  -2  765.27   40.78   0
   6  -3  -4   15.42   23.71   0
   7  -2  -5  550.10   34.77   0
   7   3  -7  122.67   33.35   0
   9  -3  -2  382.81   38.69   0
   3   6  -5  445.63   41.72   0
   4   5  -6  978.81   48.78   0
   5  -3  -4 1247.79   38.86   0
   6  -1  -6  488.09   32.05   0
   6   3  -7  544.82   37.24   0
   7  -3  -4  933.24   38.02   0
   7  -1  -6  679.24   38.32   0
   7   4  -7  430.54   38.50   0
   8  -4   0  519.76   46.27   0
   8   3  -7  326.06   36.75   0
  -1   3   2 2799.56   72.06   0
   0   7   0 2145.31   87.53   0
   3  -4   1 1206.51   55.10   0
   3  -4   2 1908.31   74.90   0
   3  -2  -4  682.11   30.50   0
   4   0  -6  132.88   21.45   0
   5  -1  -6  740.86   34.33   0
   6   4  -7   89.60   34.15   0
   7  -4  -2    2.52   31.60   0
   7   1  -7  664.05   33.78   0
   7   5  -7  290.06   37.89   0
   8  -2  -5    8.24   24.44   0
   6   1  -7   11.98   23.10   0
   8  -4  -1   -0.37   34.48   0
   8  -1  -6   60.60   29.13   0
   2  -2   7  285.67   65.43   0
   3  -1  -5 2106.35   47.07   0
   4  -3  -4    0.96   18.39   0
   4  -2  -5  184.95   19.87   0
   5   2  -7  649.03   37.82   0
   5   3  -7   87.34   30.37   0
   8   1  -7   14.67   25.84   0
   1  -1  -2    8.30   17.41   0
   2  -3  -1 1989.81   59.41   0
   3  -4   3  100.50   51.86   0
   3  -3  -3  153.84   20.28   0
   5   4  -7  560.38   41.59   0
   6   0  -7  398.75   30.25   0
   7  -4  -3  698.45   41.42   0
   7   0  -7  224.88   28.37   0
   7   6  -7    3.35   46.58   0
   8  -4  -2  540.35   42.13   0
   2  -2  -3 4665.60   75.76   0
   2  -1  -4 5189.02   77.08   0
   4   6  -6  224.96   41.19   0
   6  -3  -5  829.86   37.56   0
   7  -3  -5   36.86   26.62   0
   7  -2  -6   -3.61   28.53   0
   8   0  -7  265.77   30.73   0
   9  -4   0   33.42   42.78   0
   1  -2   4  133.43   49.44   0
   2   3  -5 1406.24   49.82   0
   3   3  -6 1351.30   45.59   0
   4  -1  -6 1291.41   36.78   0
   5  -3  -5  342.84   26.66   0
   1   0  -3 2873.74   70.58   0
   5  -2  -6  110.77   23.45   0
   5   0  -7  370.47   28.22   0
   5   5  -7  329.03   43.29   0
   6   6  -7  524.30   51.07   0
   7  -1  -7   26.75   26.80   0
   8  -4  -3  163.32   36.28   0
   8  -2  -6  359.89   33.96   0
   9  -4  -1  338.87   42.36   0
   2   1  -5 1285.14   42.65   0
   4  -4  -3    8.64   17.79   0
   6  -5   0  108.16   41.13   0
   8  -3  -5  424.05   35.46   0
   2   4  -5 1610.78   58.26   0
   3   4  -6  393.10   34.88   0
   4   2  -7 1209.79   42.21   0
   6  -5  -1  668.09   45.19   0
   7   2  -8  476.90   38.07   0
   7   3  -8  303.81   36.87   0
   8  -1  -7  412.63   34.52   0
   3  -2  -5 2121.80   46.69   0
   3   0  -6 2373.42   49.64   0
   4  -3  -5 1748.82   43.10   0
   4   3  -7 1094.82   43.91   0
   5  -5   1   -4.91   35.04   0
   5  -1  -7   37.36   24.88   0
   7  -5  -1  267.74   43.73   0
   7   4  -8   13.44   34.37   0
   2  -3  -2 2457.34   59.37   0
   4  -2  -6 2371.56   48.95   0
   5  -5  -1  234.50   31.44   0
   6  -5  -2  423.46   36.95   0
   6  -3  -6  221.89   29.64   0
   6   2  -8   48.73   28.84   0
   6   3  -8  198.02   36.49   0
   7  -3  -6  367.03   32.15   0
   2   0  -5 3756.52   65.44   0
   4   0  -7 1119.43   36.59   0
   4   4  -7   80.82   34.84   0
   5   6  -7    0.41   43.74   0
   6  -2  -7  130.98   31.02   0
   7  -5  -2  297.28   39.45   0
   7   0  -8  141.98   25.49   0
   1  -2  -1  355.66   32.50   0
   5  -5  -2  454.67   34.05   0
   5  -3  -6  743.01   34.22   0
   6  -4  -5  433.81   30.73   0
   6   0  -8  358.54   29.05   0
   6   4  -8  465.85   40.16   0
   7   5  -8  236.11   46.89   0
   8  -3  -6  188.62   28.90   0
   8  -2  -7  102.86   30.99   0
   3   5  -6  130.80   34.20   0
   5  -4  -5  749.80   33.03   0
   5   2  -8  760.28   39.40   0
   6  -5  -3  161.10   33.76   0
   8  -5  -1  320.25   46.12   0
   2  -2  -4  836.32   34.31   0
   4  -1  -7 1064.38   35.52   0
   5   3  -8  302.48   34.22   0
   7  -5  -3  345.33   40.51   0
   7  -1  -8  502.92   32.55   0
   8  -5  -2  320.35   39.27   0
   3  -4  -3 2282.51   51.59   0
   4  -5  -1 1472.52   49.99   0
   4  -5   1 1582.53   65.42   0
   5   0  -8  226.62   25.98   0
   6  -1  -8   22.14   23.89   0
   6   5  -8  130.37   42.18   0
   1   3  -4 1782.35   65.85   0
   2   5  -5   80.07   34.68   0
   4  -3  -6  864.84   33.09   0
   4   5  -7  104.57   37.61   0
   6  -5  -4  701.02   39.57   0
   6  -3  -7  148.61   28.72   0
   7  -3  -7  446.00   32.92   0
   8  -5  -3   35.52   34.36   0
   1  -1   6  159.39   46.00   0
   1   1  -4 5383.84   93.80   0
   2  -3  -3 4115.90   71.59   0
   3  -3  -5  447.17   26.40   0
   4  -5  -2  935.01   39.51   0
   5   4  -8    6.20   37.58   0
   6  -4  -6  197.61   28.19   0
   7  -5  -4  117.56   32.90   0
   0   0   4 1979.91   71.46   0
   0   6   0 1756.55   77.43   0
   1  -1  -3 3820.36   77.80   0
   3  -2  -6  411.13   26.50   0
   4  -2  -7   38.36   19.97   0
   5  -1  -8  873.12   35.09   0
   6  -2  -8  473.36   32.86   0
   7   1  -9  293.72   34.27   0
   7   2  -9   -0.72   30.05   0
   3   2  -7  489.28   32.31   0
   4  -5   2  409.55   52.02   0
   5  -4  -6 1083.59   40.02   0
   5  -3  -7  547.75   33.19   0
   7   3  -9  232.15   35.34   0
   8  -5  -4  366.86   38.20   0
   3   0  -7  600.18   29.01   0
   4   1  -8 1209.00   43.76   0
   4   2  -8  202.88   30.39   0
   6   1  -9  136.46   31.20   0
   6   2  -9  625.45   41.64   0
   7  -5  -5  562.67   38.72   0
   1  -2  -2 4323.48   88.61   0
   2   2  -6 1722.87   50.38   0
   3  -4  -4  938.82   34.55   0
   3   3  -7   88.25   26.67   0
   5  -2  -8  280.01   29.37   0
   5   5  -8  421.88   49.09   0
   6   3  -9  169.89   35.37   0
   7  -1  -9   10.72   25.58   0
   1   0  -4 2165.52   57.83   0
   4   3  -8  302.62   36.02   0
   7  -4  -7    9.17   24.52   0
   7  -3  -8    3.60   30.09   0
   8  -5  -5   12.16   31.20   0
   1   4  -4 1900.73   77.36   0
   2  -2  -5  815.25   33.18   0
   2   0  -6  871.66   33.95   0
   3  -1  -7  693.01   30.38   0
   4  -1  -8   29.08   21.19   0
   6  -3  -8  751.76   38.08   0
   6  -1  -9  677.16   34.08   0
   0   0   3  940.90   56.78   0
   2  -3  -4  242.25   23.35   0
   2   3  -6    6.44   25.70   0
   4  -4  -6   20.05   19.31   0
   4  -3  -7  887.38   32.45   0
   6  -6  -2    0.36   38.27   0
   6  -6  -1  712.76   51.03   0
   6  -5  -6  903.05   39.10   0
   6   4  -9   27.41   41.61   0
   7  -6  -2  470.34   49.79   0
   7  -6  -1  152.26   46.48   0
   7  -2  -9  147.25   30.90   0
   2  -2   6 3367.60  126.57   0
   3  -3  -6 2101.78   45.42   0
   3   4  -7 1188.52   50.60   0
   5  -4  -7   10.20   24.29   0
   5  -3  -8  256.29   28.42   0
   5   2  -9    0.29   30.97   0
   6  -6  -3  865.43   45.44   0
   7  -6  -3    1.17   34.76   0
   4   4  -8  519.78   43.26   0
   5  -1  -9   38.77   25.09   0
   5   3  -9  198.62   38.90   0
   6  -2  -9  380.56   30.93   0
   8  -6  -2    3.87   45.20   0
   2  -4  -2 3982.37   77.12   0
   3  -5   0 2376.08   72.29   0
   3  -2  -7 2230.16   47.53   0
   4  -5  -5    6.40   21.35   0
   4  -2  -8 1031.18   37.38   0
   5  -6  -2 1080.58   48.02   0
   5  -5  -6  125.22   24.28   0
   6  -6  -4  114.15   32.04   0
   7  -6  -4  601.04   43.53   0
   7  -4  -8  429.79   34.45   0
   8  -6  -3  244.20   42.02   0
   5  -6  -3   88.13   30.38   0
   6  -4  -8   64.54   28.99   0
   7  -5  -7  177.33   33.87   0
   1  -1  -4  134.60   20.34   0
   5  -2  -9  423.74   29.99   0
   6  -5  -7  295.95   28.55   0
   6  -3  -9   -6.69   27.30   0
   7  -6  -5  125.81   36.64   0
   8  -6  -4   62.07   33.77   0
   0   0   2 2871.10  111.30   0
   1  -2  -3  277.98   25.44   0
   2   6  -5  587.96   59.08   0
   5   4  -9  277.59   44.10   0
   6  -6  -5  450.48   35.28   0
   6   0 -10  610.47   37.24   0
   6   1 -10  159.09   32.93   0
   6   2 -10   14.42   33.04   0
   2  -4  -3   28.25   17.65   0
   2  -3  -5 3427.78   60.99   0
   3  -5   1  211.39   44.92   0
   3   1  -8    8.87   23.19   0
   4  -3  -8 1179.38   38.83   0
   4   1  -9  328.95   33.00   0
   5  -4  -8  534.04   32.41   0
   1  -1   5 2320.78   85.89   0
   3  -4  -6 1494.04   40.48   0
   3  -3  -7  662.66   30.25   0
   3  -1  -8 1127.99   37.43   0
   3   2  -8  768.66   39.39   0
   4   2  -9  702.43   41.14   0
   4   5  -8  315.26   43.56   0
   5  -6   1  461.21   52.20   0
   5  -5  -7  547.78   31.45   0
   7  -6  -6  117.86   35.09   0
   4  -6  -2  228.62   33.40   0
   5  -3  -9  911.78   37.61   0
   6  -2 -10  131.16   25.34   0
   6   3 -10  225.11   41.32   0
   7  -5  -8  342.94   31.14   0
   7  -4  -9  144.29   31.73   0
   0   5   0   37.47   26.96   0
   5   0 -10   29.27   29.09   0
   5   1 -10  329.68   36.60   0
   6  -5  -8  231.92   28.78   0
   6  -4  -9  532.84   36.06   0
   1   2  -5 4321.42   85.80   0
   2  -4  -4 1462.35   43.18   0
   2   1  -7  209.13   26.22   0
   3  -2  -8  138.99   21.18   0
   3   3  -8  579.87   41.32   0
   4  -6  -4  128.76   25.69   0
   4  -2  -9  926.12   35.14   0
   4   3  -9  305.80   41.36   0
   1   0  -5  159.52   22.64   0
   2   2  -7  696.71   38.69   0
   3  -5  -5 1012.11   35.73   0
   4  -6   0  779.78   53.19   0
   4  -4  -8   -3.05   24.13   0
   5   2 -10  447.37   38.96   0
   6  -3 -10  540.58   33.87   0
   4  -5  -7  260.29   27.35   0
   5  -5  -8  351.71   29.94   0
   5  -4  -9   91.69   29.21   0
   5  -2 -10  784.14   33.91   0
   7  -7  -3  243.39   46.45   0
   1  -2  -4 2700.02   60.19   0
   2  -3  -6 1062.81   35.39   0
   3  -4  -7   13.58   19.38   0
   4  -3  -9   96.52   26.03   0
   6  -7  -3  181.62   44.49   0
   7  -7  -4  324.84   39.30   0
   2  -4   2  340.00   64.72   0
   3  -3  -8  300.82   24.57   0
   5  -6  -7  822.61   34.80   0
   5   3 -10   79.26   40.03   0
   6  -7  -4  218.79   37.53   0
   6  -7  -2  441.79   50.80   0
   6  -5  -9  569.89   33.79   0
   6  -1 -11  294.08   33.54   0
   6   0 -11   19.73   29.93   0
   6   1 -11  235.66   36.03   0
   7  -7  -5   52.31   34.89   0
   1  -3  -2 2718.23   69.52   0
   1  -1  -5 1947.06   50.52   0
   1   3  -5  667.48   45.14   0
   2  -4  -5 1389.41   40.64   0
   2  -2  -7  123.10   19.37   0
   2   5  -6 1222.08   62.39   0
   3  -5  -6   24.15   18.96   0
   4   4  -9   34.24   40.82   0
   5  -3 -10   -2.00   23.97   0
   6  -7  -5  634.72   42.51   0
   6  -4 -10  423.83   34.97   0
   0   1   3   88.62   23.59   0
   3   0  -9  445.27   32.96   0
   3   4  -8   18.31   34.94   0
   4  -6  -6 1051.36   37.19   0
   4   0 -10  877.15   39.55   0
   5  -7  -3  538.81   43.89   0
   6  -6  -8  693.34   35.54   0
   6   2 -11  162.21   38.19   0
   7  -7  -6  338.99   39.03   0
   4  -6   1  115.44   50.61   0
   4  -5  -8  452.37   30.71   0
   4  -4  -9 1014.42   37.33   0
   4   1 -10  536.08   36.88   0
   5  -7  -4  704.82   41.22   0
   5  -7  -2  181.43   43.47   0
   5  -5  -9  171.63   29.24   0
   6  -7  -6   19.79   31.90   0
   4  -2 -10  140.93   24.29   0
   5  -7  -5   55.01   29.18   0
   5  -4 -10  526.73   33.46   0
   6  -3 -11  133.01   27.03   0
   0   5   1 4689.76  100.95   0
   3  -6  -3   60.96   25.61   0
   3  -6  -2 1964.74   59.26   0
   3  -4  -8 1985.59   44.92   0
   4   2 -10   18.88   35.10   0
   5  -6  -8   27.30   22.87   0
   5  -1 -11  189.06   31.89   0
   5   0 -11  541.88   36.71   0
   7  -7  -7   32.35   32.82   0
   1  -2  -5 2493.80   55.29   0
   2  -5  -3  799.25   38.67   0
   2  -4  -6  194.39   21.54   0
   2  -3  -7  673.85   29.78   0
   3  -5  -7 1196.03   37.50   0
   3   2  -9   14.22   30.09   0
   4  -6  -7  245.17   25.91   0
   4  -3 -10  747.97   32.89   0
   5   1 -11  130.33   33.18   0
   6  -6  -9   29.82   23.97   0
   6  -5 -10  -11.38   28.65   0
   6  -4 -11   62.85   27.59   0
   1  -3  -4 9675.04  109.03   0
   2  -5  -4 1601.01   44.87   0
   3  -6  -5  365.89   27.34   0
   3  -3  -9 1456.50   41.39   0
   5  -3 -11  432.41   29.22   0
   5   2 -11   25.19   38.96   0
   0   1  -2  255.02   42.60   0
   4  -7  -4  405.91   37.52   0
   4  -7  -3  319.19   37.40   0
   4   3 -10  499.77   48.59   0
   5  -5 -10  696.86   37.11   0
   0   2   3 2297.22   68.08   0
   1  -1  -6  856.15   33.93   0
   2   4  -7   90.02   33.06   0
   3  -6  -6  629.18   32.93   0
   3   3  -9  427.18   42.47   0
   4  -7  -5 1096.30   45.07   0
   0   1   2 3279.48  101.09   0
   2  -5  -5   67.74   19.28   0
   2  -4  -7 1784.00   43.08   0
   2   2  -8  354.55   33.67   0
   3  -5  -8  682.61   31.69   0
   3  -4  -9  389.58   28.46   0
   5  -4 -11  343.28   28.92   0
   6  -6 -10  424.60   33.69   0
   7  -8  -5  285.66   46.12   0
   1   2  -6  441.53   34.85   0
   3  -1 -10  741.17   37.00   0
   4  -1 -11  409.22   32.37   0
   4   0 -11    8.02   30.93   0
   6  -8  -5  106.20   37.54   0
   6  -8  -4  663.21   52.96   0
   7  -8  -6  190.71   38.33   0
   1  -3  -5    6.80   16.81   0
   1  -2  -6   15.50   16.71   0
   2  -3  -8  741.52   31.26   0
   3   0 -10  102.07   28.27   0
   6  -8  -6  313.31   37.12   0
   6  -8  -3   29.21   48.08   0
   2  -5  -6 1567.16   42.23   0
   2  -5   0   24.51   34.21   0
   2  -2   5   99.11   52.13   0
   3   1 -10  554.95   38.94   0
   4  -7  -1   32.39   39.21   0
   4  -6  -9  101.42   26.11   0
   4  -5 -10   53.42   27.84   0
   4  -3 -11   95.51   24.03   0
   4   1 -11  668.12   41.62   0
   5  -6 -10  140.22   26.97   0
   5  -5 -11   -5.85   26.47   0
   5  -2 -12  571.61   36.04   0
   5  -1 -12  151.51   31.70   0
   5   0 -12   75.25   31.71   0
   1   0   5  113.38   30.92   0
   3  -3 -10  141.47   24.44   0
   6  -8  -7  314.07   36.27   0
   3  -5  -9  383.00   29.27   0
   5  -8  -4   -7.07   40.93   0
   2  -4  -8   13.42   18.47   0
   2  -2  -9  155.02   23.43   0
   2   0  -9  710.50   35.02   0
   2   3  -8  242.01   36.80   0
   3  -6  -8  145.21   25.34   0
   4  -7  -8  193.27   25.89   0
   4   2 -11  583.25   46.37   0
   5  -8  -6  159.71   33.28   0
   5  -8  -3  868.72   55.99   0
   5  -4 -12   15.48   24.84   0
   6  -8  -8   51.73   30.90   0
   0   2   2 1593.92   63.58   0
   0   3   2  718.94   43.09   0
   1  -3  -6 1420.95   41.56   0
   1   7  -1 1658.04   80.73   0
   2  -5  -7  467.15   27.48   0
   3  -4 -10  588.11   31.41   0
   3   2 -10  872.50   48.88   0
   1  -4  -4  448.64   28.73   0
   1  -1  -7  112.80   19.06   0
   4  -6 -10  533.15   32.80   0
   5  -6 -11  340.59   32.10   0
   1   3  -6 2386.47   70.97   0
   2  -3  -9   92.44   20.52   0
   2   1  -9   68.98   26.85   0
   3  -7  -3 1397.18   51.92   0
   4  -5 -11  664.78   34.50   0
   4  -2 -12   10.76   28.77   0
   5  -8  -8  288.56   32.28   0
   5  -7 -10  109.60   23.68   0
   5  -5 -12  396.11   33.02   0
   1  -4  -5 2846.25   57.30   0
   1   1  -7 1177.77   43.79   0
   2  -6  -5 1585.86   43.69   0
   4  -7  -9  303.77   26.65   0
   4  -1 -12  276.94   33.22   0
   0   3   1 2058.09   76.63   0
   2  -5  -8  709.54   31.47   0
   3  -7  -7   -6.17   22.81   0
   3  -6  -9 1292.49   40.20   0
   3  -5 -10  939.07   35.76   0
   3  -3 -11 1094.64   38.04   0
   4  -8  -6  619.35   39.27   0
   4  -8  -5   26.74   30.90   0
   4   0 -12  374.78   36.17   0
   0   3   0 3711.41  126.18   0
   2  -6  -6  541.92   29.48   0
   2  -4  -9  587.18   28.43   0
   4  -8  -7  221.05   33.13   0
   4  -8  -4 1262.72   53.23   0
   4  -4 -12  345.88   27.81   0
   1  -4  -6 3028.21   56.28   0
   2   2  -9  822.55   44.37   0
   3  -4 -11  896.72   34.56   0
   3   3 -10  201.89   42.38   0
   4  -6 -11  282.87   30.46   0
   5  -7 -11  476.35   32.96   0
   2  -6  -7  528.01   29.57   0
   3  -7  -8 1020.43   37.11   0
   4  -8  -3  120.89   43.01   0
   4  -7 -10  634.86   32.43   0
   4   1 -12   34.83   37.46   0
   6  -9  -7    6.48   33.57   0
   6  -9  -6  371.09   42.02   0
   6  -9  -5  158.22   47.36   0
   0   2   1 2907.61  101.75   0
   2  -1 -10  150.09   27.21   0
   3  -6 -10  381.39   31.64   0
   3   1 -11  101.87   36.43   0
   4  -5 -12    4.36   22.91   0
   5  -8 -10  687.98   35.60   0
   2  -5  -9 1033.05   35.01   0
   3  -5 -11    1.23   23.21   0
   0  -1  -2 3608.09   96.21   0
   1  -4  -7   22.77   17.03   0
   1  -2  -8  507.19   26.43   0
   2  -6  -8 2820.55   52.22   0
   2   4  -8 1285.37   60.42   0
   3  -7  -9  483.35   31.58   0
   3  -3   5  125.68   68.08   0
   5  -9  -7  303.96   37.27   0
   5  -9  -6  101.56   36.31   0
   0  -1  -3   91.21   21.35   0
   1  -5  -4  608.56   32.53   0
   1   0  -8  974.43   37.87   0
   2  -5   1 1677.54   88.70   0
   2  -4 -10  745.53   33.62   0
   4  -7 -11   22.57   24.09   0
   4  -6 -12  229.56   27.58   0
   4  -3 -13  235.52   32.08   0
   4  -2 -13  357.76   33.57   0
   5  -9  -8   11.82   30.96   0
   5  -9  -5  322.81   44.51   0
   1  -5  -5 3107.34   59.34   0
   1  -3  -8 1295.56   37.56   0
   3  -1 -12  105.27   30.65   0
   4  -1 -13    3.92   29.27   0
   1  -5  -3 1291.57   46.54   0
   3  -8  -6  527.69   36.79   0
   3  -8  -5 1037.27   47.26   0
   3  -6 -11  427.41   30.99   0
   3  -4 -12   30.71   25.16   0
   3   2 -11   86.01   40.25   0
   4  -8 -10   32.47   22.92   0
   5  -9  -9  386.98   35.37   0
   5  -9  -4  399.55   51.53   0
   0  -1  -4 2048.58   58.10   0
   1   1  -8   13.91   24.58   0
   2  -7  -6   46.57   21.20   0
   2  -6  -9   13.14   22.69   0
   2  -5 -10  137.35   25.53   0
   2   3  -9  402.93   41.19   0
   3  -7 -10   76.87   25.60   0
   4  -5 -13  261.56   27.24   0
   4   0 -13  106.15   36.62   0
   1  -4  -8 1661.64   41.46   0
   2  -7  -7 1315.00   40.30   0
   3  -8  -4  182.14   33.06   0
   3  -5 -12  594.43   31.20   0
   3   0 -12  137.92   34.73   0
   4  -9  -7   22.71   32.36   0
   4  -9  -6  826.87   47.09   0
   4  -7 -12  610.33   33.98   0
   1  -5  -7 2687.64   51.85   0
   4  -8 -11  432.29   28.58   0
   0   2   0 2210.25  119.75   0
   1  -1  -9  182.17   25.04   0
   2  -7  -8  110.04   25.11   0
   2  -4 -11  383.21   27.59   0
   3  -8  -9   51.42   23.85   0
   4  -9  -5  391.85   43.30   0
   0  -2  -4 4266.43   77.84   0
   0  -2  -3 2241.75   62.90   0
   1  -3  -9 2634.74   49.94   0
   1   3  -7  106.08   34.17   0
   2  -6 -10 1274.14   39.96   0
   3  -7 -11  720.69   35.55   0
   3  -6 -12  403.47   29.67   0
   4  -9  -9  102.76   29.07   0
   0  -1  -5  107.19   19.70   0
   0   0  -5 6339.64   98.34   0
   1  -5  -8  881.38   32.60   0
   2  -7  -3  955.74   45.03   0
   2  -5 -11 1031.80   36.17   0
   2   0 -11   26.12   29.23   0
   2   2 -10   66.09   33.50   0
   3  -3 -13  242.75   31.31   0
   3   1 -12  463.65   44.62   0
   4  -9  -4  292.66   45.84   0
   1  -4  -9   37.09   19.02   0
   1   0  -9 1445.12   44.67   0
   2  -7  -9 1341.36   41.22   0
   3  -8 -10  718.55   32.68   0
   3  -2 -13   20.16   30.92   0
   4  -8 -12   83.03   26.86   0
   0  -2  -5  528.50   29.43   0
   0  -2  -2 1628.60   60.89   0
   1  -6  -6 1209.55   38.23   0
   1  -6  -5  747.46   32.76   0
   1   2  -8 1384.96   52.58   0
   3  -5 -13  129.45   25.99   0
   5 -10  -8   90.31   33.22   0
   5 -10  -7   93.66   35.45   0
   1  -6  -7 1933.05   45.12   0
   2  -6 -11  141.71   25.91   0
   3  -7 -12   -5.07   26.49   0
   3  -1 -13  349.95   34.47   0
   5 -10  -6  370.66   48.15   0
   1  -6  -4 1991.39   51.50   0
   1  -5  -9  510.21   27.90   0
   1   6  -2   20.76   39.02   0
   2  -7 -10  637.38   33.19   0
   2  -3 -12  674.11   33.91   0
   2  -2 -12    4.95   26.43   0
   3  -9  -8   22.13   29.47   0
   3  -9  -7 1280.54   48.02   0
   3  -8 -11  121.51   25.56   0
   3  -7   0    1.98   47.76   0
   4  -9 -11  310.38   31.42   0
   0  -3  -4   12.56   16.53   0
   0  -2  -6 2351.69   52.31   0
   0  -1  -6 1186.64   40.90   0
   1  -6  -8  146.16   21.67   0
   1  -3 -10   20.83   18.38   0
   2  -1   5 2254.17   85.92   0
   2   1 -11  331.98   38.26   0
   3  -9  -6  226.03   34.96   0
   3  -8  -2  251.96   44.49   0
   3  -6 -13   71.91   22.26   0
   0  -3  -5 3615.37   64.66   0
   1  -4 -10  924.20   33.06   0
   1  -1 -10  947.01   38.43   0
   1   1  -9 1070.88   42.82   0
   2  -8  -8  728.41   34.58   0
   2  -6   0 1463.29   74.44   0
   2  -5 -12  124.08   23.48   0
   2  -1 -12  593.76   37.89   0
   3   0 -13  268.18   39.15   0
   2  -8  -5  397.60   34.05   0
   3  -9 -10  288.92   31.64   0
   3  -9  -5  892.87   47.65   0
   3  -8 -12  343.96   30.20   0
   4 -10  -9   82.16   33.49   0
   4 -10  -8  229.39   37.12   0
   4 -10  -7  369.10   40.20   0
   0  -3  -6  509.48   27.13   0
   1  -6  -9 1595.00   41.25   0
   2  -7 -11  112.91   27.63   0
   2  -6 -12  435.05   29.98   0
   3  -7 -13  352.44   29.56   0
   3  -4 -14   21.39   27.55   0
   3  -3 -14  370.80   34.20   0
   4 -10  -6   33.31   42.39   0
   0  -2  -7    4.75   16.92   0
   3  -2 -14  200.30   32.06   0
   4 -10 -10  509.58   36.20   0
   0  -3  -7 2095.55   47.81   0
   1   0 -10   29.33   25.70   0
   2  -8 -10   28.82   24.21   0
   2  -8  -4 1107.89   47.50   0
   2   0 -12  662.64   43.17   0
   3  -9 -11  274.86   27.20   0
   3  -6 -14  469.95   30.23   0
   0  -4  -6 1246.45   38.50   0
   0  -4  -5 2858.73   57.62   0
   1  -7  -7   91.25   21.45   0
   1  -4 -11  674.09   31.28   0
   2  -3 -13  272.52   31.68   0
   4 -10  -5  527.64   55.87   0
   1  -7  -8 1547.48   40.93   0
   1  -6 -10   33.22   20.54   0
   1  -2 -11    6.56   26.60   0
   1   6  -1  975.62   59.32   0
   2  -8 -11  799.45   35.10   0
   2  -7 -12  638.97   33.69   0
   2  -2 -13  690.63   38.14   0
   2   2 -11  426.53   44.00   0
   3  -8 -13  283.29   29.89   0
   3  -1 -14   14.94   35.49   0
   0  -4  -7 2160.08   47.28   0
   0  -3  -2  696.91   39.99   0
   0   1  -6 1185.77   47.67   0
   1  -7  -9  804.12   32.92   0
   1  -5 -11   57.81   22.17   0
   2  -6 -13  464.32   28.39   0
   3  -9 -12  506.48   32.40   0
   0  -3  -8 1641.29   41.36   0
   0  -2  -8 2897.95   54.73   0
   0   0  -7 1352.18   45.71   0
   1   2  -9  118.87   31.40   0
   1   3  -8 1580.88   61.16   0
   2  -9  -7   45.73   31.93   0
   3 -10  -8  638.02   41.87   0
   1  -6 -11  679.30   32.05   0
   1  -1 -11  308.73   31.22   0
   2  -9  -9   76.93   27.30   0
   3 -10  -7  206.28   37.67   0
   0  -4  -8   47.38   18.20   0
   0   2  -5  431.74   39.85   0
   1  -7 -10  799.88   34.18   0
   1   1 -10  279.39   34.58   0
   2  -9 -10  426.52   30.66   0
   2  -7 -13    1.34   24.30   0
   2  -7  -1   23.68   40.06   0
   2   1 -12   75.31   39.38   0
   3  -8  -1  556.03   60.27   0
   0  -5  -7  126.52   19.71   0
   0  -5  -6 3042.32   55.30   0
   3 -10  -6  757.60   48.98   0
   4 -11  -9  345.58   38.28   0
   4 -11  -8   24.94   36.46   0
   0  -5  -5   25.44   16.39   0
   1  -8  -8 1324.90   40.27   0
   1  -5 -12 1050.84   35.42   0
   1  -3 -12  135.65   27.19   0
   1   4  -7 1026.13   65.31   0
   2  -9 -11  450.51   29.63   0
   2  -4 -14  501.79   33.58   0
   0  -5  -8 2081.96   45.01   0
   0  -4  -9 4316.48   61.84   0
   0  -3  -9  526.41   26.81   0
   1  -8  -9   65.25   24.87   0
   1  -8  -7  777.75   33.82   0
   1  -7 -11  863.29   35.09   0
   1   0 -11 1261.13   48.21   0
   2  -9  -5  336.88   37.67   0
   2  -8 -13  161.75   26.49   0
   2  -6 -14   -4.24   25.51   0
   2  -3 -14   83.35   28.30   0
   3 -10 -12  -13.42   27.73   0
   4 -11  -7  210.60   45.40   0
   0  -5  -4 3741.41   68.36   0
   1  -6 -12  261.84   26.81   0
   2  -9 -12   79.40   26.95   0
   2   0 -13  180.66   37.55   0
   3 -10  -5   22.67   41.84   0
   0  -5  -9 1975.06   44.30   0
   0   0  -8  711.58   35.60   0
   0   1  -7    8.17   22.76   0
   1  -8 -10  994.25   36.68   0
   2  -7 -14  332.95   26.68   0
   2  -2 -14   83.58   29.45   0
   0  -6  -7  539.54   28.98   0
   0  -1  -9 1478.80   44.66   0
   1  -7 -12   23.92   23.34   0
   1  -7  -3 1567.48   53.90   0
   0  -6  -8 1582.54   40.55   0
   0  -6  -6  481.30   27.46   0
   0  -4 -10  378.99   24.82   0
   1  -8 -11   22.89   24.91   0
   1  -4 -13  558.06   33.62   0
   1  -1 -12  560.34   38.45   0
   1   0   3 3069.62   94.49   0
   2 -10  -8  288.14   36.67   0
   3 -11 -10  338.91   37.68   0
   3 -11  -9   56.78   34.82   0
   0  -6  -9   63.79   19.98   0
   0  -5 -10   16.35   19.20   0
   1  -6 -13  224.95   24.30   0
   1  -3 -13  448.60   32.91   0
   2 -10 -11   13.31   27.11   0
   2 -10  -7  962.07   45.48   0
   2  -9 -13  513.78   32.42   0
   2  -9  -4  168.38   38.85   0
   2  -8 -14  343.89   29.01   0
   2  -5 -15   20.12   27.42   0
   3 -11 -11  106.09   31.23   0
   3 -11  -8  532.21   43.49   0
   0  -6  -5 1236.27   39.43   0
   0  -2 -10  342.94   26.65   0
   0   2  -6  683.12   43.02   0
   2  -8  -2  580.27   50.54   0
   2  -4 -15  106.12   28.16   0
   0  -5  -3  856.46   39.14   0
   1  -9 -10   75.44   26.19   0
   1  -9  -9  616.68   32.34   0
   1  -8 -12  620.47   34.57   0
   1  -5   0 2429.33   90.06   0
   1   1 -11  228.53   37.52   0
   1   2 -10  738.46   47.20   0
   2 -10 -12  586.26   31.36   0
   2  -3 -15  416.73   34.27   0
   3 -11  -7  132.01   40.66   0
   3  -9  -2  810.37   59.54   0
   0  -6 -10  597.71   29.18   0
   1  -2 -13   27.33   28.38   0
   2 -10  -6   13.45   35.78   0
   0  -7  -9 1214.20   37.08   0
   0  -7  -8  108.68   21.39   0
   0  -5 -11  880.34   33.07   0
   0   0  -9  690.39   35.85   0
   1  -9 -11  148.99   27.43   0
   1  -8  -4   29.72   28.94   0
   1  -6  -1 1166.53   58.31   0
   1   0 -12   17.97   34.37   0
   1   1   3 2721.40   78.73   0
   1   3  -9  340.52   44.21   0
   2 -10 -13  195.82   28.81   0
   0  -6  -4   31.78   19.64   0
   0  -3 -11   11.38   22.52   0
   0  -1 -10  129.22   25.03   0
   0   1  -8 1575.73   51.51   0
   1  -8 -13  512.74   30.97   0
   1  -5 -14  180.20   28.14   0
   2  -2 -15  149.41   39.23   0
   3 -11  -6  299.66   50.80   0
   0  -7 -10 1271.08   39.37   0
   0  -7  -6   86.03   19.94   0
   0  -6 -11  502.62   29.05   0
   1  -9 -12  609.87   33.46   0
   1  -9  -6  263.64   31.63   0
   1  -4 -14   30.02   26.39   0
   0  -2 -11 1008.47   38.99   0
   1  -7 -14  111.33   22.07   0
   1  -1 -13  663.08   43.05   0
   2 -11 -10   42.62   30.91   0
   2 -11  -9  821.26   45.32   0
   0  -7 -11   45.42   23.60   0
   0  -5 -12   14.15   22.52   0
   1  -3 -14  403.93   33.26   0
   2 -11  -8   68.60   37.67   0
   2 -10  -5  877.05   54.67   0
   3 -12 -10  271.78   36.20   0
   0  -8  -9 1251.47   39.76   0
   0  -7  -5 2119.18   50.75   0
   0  -6 -12  249.40   25.37   0
   1 -10 -10   57.31   26.97   0
   1  -9 -13   15.18   25.01   0
   1  -8 -14  121.17   25.59   0
   3 -12  -9  190.38   37.33   0
   0  -8 -10    6.15   23.79   0
   0  -8  -8  255.21   25.20   0
   0  -3 -12  476.51   32.45   0
   1 -10 -11  615.36   32.12   0
   1 -10  -8  804.70   41.44   0
   1  -9  -5  178.35   33.22   0
   0  -8  -7  494.41   28.90   0
   0  -7 -12  982.58   35.27   0
   1 -10 -12   63.08   23.97   0
   1  -6 -15   23.55   25.01   0
   1  -5 -15  321.45   33.15   0
   3 -12  -8   14.27   42.52   0
   0  -8 -11  985.57   37.09   0
   1  -9 -14  492.66   31.09   0
  -3  -8   3  195.25   36.18   0
  -3  -4  10  143.90   26.30   0
  -2   8  14  386.93   27.18   0
  -1   3  12  132.98   23.74   0
   0  -1   5 1763.98   42.32   0
   0   3   9  545.77   24.54   0
   0   5   2  547.71   58.28   0
   0   6   9   57.99   16.13   0
   0   7   6   60.24   21.83   0
   0   7   7 1913.84   47.02   0
  -3  -1  13   -3.77   24.09   0
  -2   1  13  223.42   21.55   0
  -2   3  14   86.25   22.56   0
  -1   1  11  334.51   24.56   0
  -1   8  12  666.11   30.50   0
   0   1   8  231.70   19.53   0
   0   7   8  118.73   20.24   0
  -3  -5   9  182.73   31.03   0
  -2  -7   1 1209.27   74.89   0
  -1  -4   5  587.22   29.87   0
  -1  -3   7  117.10   20.80   0
  -1   9  11  179.58   25.14   0
   0   0   7 1359.49   34.32   0
  -2  -5   7  300.78   30.26   0
  -2   9  14   11.29   23.42   0
  -2  10  13  204.25   26.21   0
  -1   2  12  809.80   30.73   0
  -1   5  13  172.15   22.13   0
  -1   6  13  227.84   20.89   0
   0   4  10  404.40   22.19   0
   0   5  10   37.80   16.30   0
   0   7   5 2113.79   59.33   0
  -3  -7   6  446.53   36.19   0
  -2  -2  11  431.29   29.36   0
  -2   2  14  101.58   22.44   0
   0  -1   6 1201.75   33.83   0
   0   6  10  596.47   24.65   0
  -3  -6   8  419.95   37.58   0
  -1   9  12  588.08   31.94   0
  -1  10   8  831.70   45.08   0
  -1  10   9  638.12   40.01   0
   0   6   3 1384.12   67.41   0
  -4  -5  11  232.59   30.91   0
  -1  -5   1   94.00   32.79   0
  -1  -5   2 1302.91   53.87   0
  -1   3  13  484.34   27.48   0
  -1   8  13  468.68   28.35   0
  -1  10  10   54.85   29.79   0
   0  -2   3  685.88   34.59   0
   0   0   8  722.04   27.44   0
   0   1   9 1551.38   35.65   0
  -3  -4  11  395.27   30.57   0
  -3  -3  12    6.93   24.13   0
  -2  -7   2  501.66   45.25   0
  -2  -4   9    7.46   21.87   0
  -2  10  14  240.27   27.47   0
  -1  -4   6  880.02   35.54   0
  -1   1  12  592.12   26.68   0
   0  -2   4 2957.38   58.26   0
   0   2  10  364.85   21.73   0
   0   4  11  653.68   28.13   0
   0   5  11  894.54   30.07   0
   0   6  11  519.77   25.52   0
  -2   1  14  534.48   29.42   0
  -1   6  14  653.45   25.99   0
  -1  10   7   99.30   35.47   0
  -1  10  11  667.68   38.73   0
   0  -1   7   20.30   15.21   0
   0   8   7  475.79   31.70   0
   0   8   8  237.42   25.64   0
  -3  -5  10  472.44   35.85   0
  -1  -5   3 1448.63   50.41   0
  -1  -1  -3 2447.59   61.98   0
  -1   2  13   16.58   19.72   0
  -1   9  13    8.09   24.22   0
   0   3  11    8.83   17.89   0
  -2  -5   8  438.43   34.83   0
  -1   4  14   -2.83   20.28   0
  -1   8  14  138.78   24.19   0
   0  -2   5  416.31   25.04   0
   0   8  10    9.81   22.22   0
  -2  -3  11   97.12   27.19   0
  -2  -2  12  153.44   25.86   0
  -2  -1  13  380.13   29.52   0
  -1  10  12   68.07   28.03   0
   0   0   9  735.21   27.32   0
   0   1  10  122.02   20.58   0
   0   5  12   15.16   18.42   0
  -2  -7   3 1593.38   58.95   0
  -1   0  12   37.74   20.10   0
  -1   3  14  450.92   26.67   0
   0   4  12  621.53   27.03   0
   0   7   4 2065.51   72.28   0
   0   8  11 1021.48   35.28   0
  -3  -6   9  145.52   33.55   0
  -1  -4   7 1019.27   36.26   0
  -1   6  15    3.26   19.40   0
  -1  -3   9  377.06   28.11   0
  -1   5  15  346.59   24.83   0
  -1  10  13  562.39   31.49   0
   0   3  12  518.71   27.23   0
  -3  -4  12  132.54   29.97   0
  -1   2  14  683.77   28.19   0
  -1   8  15  438.08   26.29   0
   0   8  12  181.60   24.42   0
   0   1  11  903.51   30.75   0
   0   5  13  891.42   30.14   0
   0   6  13  917.76   28.99   0
   0   9   9  339.28   29.88   0
  -3  -5  11    3.31   31.30   0
  -2  -7   4   24.68   29.83   0
  -2  -5   9  458.47   36.45   0
  -1   9  15  189.15   25.23   0
  -1  10  14  310.05   27.75   0
  -1  11  11  190.25   36.58   0
   0   2  12   10.29   18.71   0
   0   4  13    5.09   21.03   0
   0   9   8 1083.37   43.20   0
   0   9  11  375.98   28.01   0
   1   3   6 1471.25   37.46   0
   1   3   7  334.29   20.70   0
   1   4   7  267.05   19.96   0
  -2  -3  12  577.99   32.59   0
  -2  -2  13  137.81   24.90   0
  -1  -3  -2   32.72   19.95   0
  -1  -2  11  104.02   24.58   0
  -1  11  12  251.08   37.60   0
   1   4   6 2594.74   48.93   0
   1   4   8 3112.20   48.60   0
   1   5   8  936.63   30.00   0
  -1  -4   8  151.69   25.72   0
  -1   1  14   25.32   22.68   0
   0   3  13  416.69   25.66   0
   0   8  13  457.24   27.52   0
   0   9  12  180.59   24.57   0
   1   2   6    4.17   14.01   0
   1   3   5  329.40   21.85   0
   1   3   8  512.81   22.82   0
   1   5   7 1430.36   36.14   0
   1   5   9  321.23   20.89   0
  -2  -4  11  262.43   30.17   0
  -1  -3  10  266.76   27.35   0
   0   5  14  360.86   24.12   0
   0   6  14   36.23   18.33   0
   0   8   5   46.16   31.53   0
   0   9   7  287.99   34.24   0
   1   2   5 5515.37   72.15   0
   1   5   6  454.00   25.91   0
   0   0  11   16.22   18.25   0
   0   1  12  586.62   26.34   0
   1   2   8  141.05   15.96   0
   1   4   5 2213.12   49.45   0
   1   5  10 1452.25   34.06   0
   1   6   9 1909.62   40.11   0
   0   2  13  766.64   29.24   0
   0   8  14  446.76   28.07   0
   0   9  13  758.19   34.14   0
   1   1   6 2013.37   42.27   0
   1   4  10 1252.23   31.41   0
  -1  -1  13    9.59   25.22   0
  -1  11  14   81.17   31.70   0
   0  -3   6   11.07   18.34   0
   1   1   5 5044.67   68.02   0
   1   1   7 1799.76   38.46   0
   1   2   9 1391.25   34.20   0
   1   3  10   33.83   15.84   0
  -2  -5  10   10.80   30.86   0
  -1  -2  12  405.73   30.37   0
   0   3  14  139.93   21.90   0
   0   6  15  420.59   24.85   0
   0  10  10  657.43   39.45   0
   0  10  11   21.01   29.34   0
   1   4  11  727.63   28.43   0
   1   5  11  360.65   23.22   0
   1   6  11  758.08   27.60   0
   0   5  15  107.91   21.77   0
   0   9  14   39.65   24.80   0
   0  10  12  566.57   34.90   0
   1   2   4 2342.76   51.59   0
   1   3   4 3559.63   65.93   0
  -1  -5   7  721.97   35.60   0
   0  -3   7 2364.84   47.59   0
   0   1  13   85.94   19.79   0
   0   8  15   87.40   22.44   0
   0  10   9  422.78   35.65   0
   1   2  10  844.71   28.57   0
   1   3  11 1385.71   34.96   0
  -2  -4  12  172.64   30.63   0
   0   2  14  174.57   20.47   0
   0   4  15   41.66   22.36   0
   0  10  13   67.14   25.37   0
   1   0   6 2990.18   50.08   0
   1   1   4 2519.42   52.59   0
   1   5  12 1082.79   31.98   0
   1   6  12  696.69   27.17   0
   0   9  15  283.44   26.59   0
   1   0   5   96.76   16.21   0
   1   0   7  123.47   16.69   0
   1   4  12  286.97   21.82   0
   1   7   7   33.52   20.14   0
   0  -3   8  211.80   24.10   0
   0  -2  10   -2.45   22.63   0
   0   9   6  978.07   52.03   0
   0  10  14  262.04   27.25   0
   1   2  11  176.76   21.57   0
   1   3  12  438.13   24.78   0
   1   4   4  978.67   39.57   0
   1   8  10 1323.69   39.06   0
   1   8  11   10.11   22.66   0
  -1  -4  10   69.30   27.85   0
  -1  -2  13  158.33   26.74   0
   0  10   8  759.52   44.54   0
   1   5  13  326.41   23.83   0
   1   6  13  141.06   19.54   0
   1   8   9  366.60   27.79   0
  -2  -5  11  530.85   39.67   0
   1   4  13 1209.04   35.87   0
   1   8  12  991.28   33.71   0
  -1  -6   4  277.13   32.39   0
  -1  -3  12   24.42   25.20   0
   0  -1  12   29.65   22.52   0
   0  10  15  207.77   27.44   0
   1   0   4 4693.44   70.03   0
   1   8   8  927.53   36.23   0
  -1  -6   3 1755.67   59.62   0
   0  11  11  556.64   42.22   0
   0  11  12  275.66   36.76   0
   0  11  13  237.07   34.10   0
   1  -1   6  168.67   18.55   0
   1   1  11  118.95   20.06   0
   1   3  13  386.28   25.81   0
   1   6  14  848.14   28.89   0
   1   8  13  442.67   27.65   0
  -1  -6   5  307.55   32.08   0
  -1   0  -2  395.66   31.42   0
   0  -2  11  674.47   33.43   0
   1  -1   7 1912.32   40.57   0
   1   0  10  469.25   26.03   0
   1   5  14  435.55   25.29   0
   1   7  14   97.04   20.61   0
   1   9  11  706.28   32.58   0
  -1  -4  11  236.65   30.62   0
   0  -4   6  281.59   26.39   0
   0  11  10   43.12   34.86   0
   0  11  14  443.60   36.67   0
   1  -1   5 2350.09   47.19   0
   1  -1   8   73.88   17.94   0
   1   2   3 1226.92   43.79   0
   1   4  14   45.91   21.91   0
   1   7   6 1056.98   40.59   0
   1   9  10  648.98   34.76   0
   1   9  12  887.05   35.10   0
   1   1   3 2555.90   59.24   0
   1   1  12  304.57   23.72   0
   1   2  13    3.25   19.32   0
   1   9  13   18.46   24.21   0
  -1  -6   2   22.52   32.64   0
   0  -4   7  305.85   28.07   0
   0  -1  13  562.54   31.83   0
   1   3  14  467.78   25.09   0
   1   5  15  390.75   25.01   0
   1   6  15    6.47   19.21   0
   1   9   9 1661.39   46.59   0
   0  -3  10  599.36   32.33   0
   0  10   7 1153.57   60.48   0
   1   3   3  328.53   27.33   0
   1   9  14  604.30   31.07   0
   0  -2  12  182.06   26.86   0
   1  -1   4 3751.81   62.79   0
   1   4  15  523.72   28.48   0
   0  -4   8  521.44   32.16   0
   1   0   3 3049.18   62.99   0
   1   1  13  549.94   27.04   0
   1   9  15   16.59   23.45   0
   1  10  12   -6.54   28.91   0
  -1  -5  10  575.58   38.63   0
  -1  -4  12  314.84   34.46   0
   1   2  14  434.25   24.73   0
   1  10  11  880.01   42.23   0
   1  10  13  350.96   30.60   0
   2   4   8    7.25   15.08   0
   2   4   9  676.27   26.00   0
   2   4  10  299.26   21.28   0
   2   5   9 1053.68   31.28   0
   2   5  10  371.26   22.48   0
   0  -3  11   29.88   25.77   0
   1   9   8    7.45   27.30   0
   1  10  14  176.63   26.90   0
   2   3   8  837.14   28.33   0
   2   3   9   76.13   16.18   0
   2   6  10 2082.24   40.72   0
   2   6  11  174.46   20.71   0
   0  -4   9   -4.17   26.73   0
   1  -2   5 1033.26   35.05   0
   1  10  10  189.35   33.89   0
   2   5   8 1465.14   35.77   0
   2   5  12    6.19   19.01   0
   2   6   9  211.07   19.29   0
   2   6  12  925.98   30.71   0
   0  -2  13  354.66   30.54   0
   1  10  15  141.53   25.34   0
   2   2   8 1604.34   36.43   0
   2   3   7 1213.92   33.46   0
   2   3  11  272.74   21.76   0
   2   4   7 1993.12   41.73   0
   2   4  12  938.13   30.91   0
   0  -3   1  203.06   32.70   0
   0   8   4 2505.32  120.83   0
   1  -2   9  167.26   24.26   0
   2   2   7  236.58   19.28   0
   2   6   8 2190.58   44.27   0
   2   6  13  482.59   24.56   0
   2   7  13    6.98   20.85   0
   2   2  11  744.37   29.99   0
   2   3  12  716.79   27.90   0
   2   4  13   60.29   22.61   0
  -2   7   1   20.68   43.77   0
  -1   7   2   73.08   58.56   0
   0  -4   2  231.77   30.46   0
   1  -2   4  137.48   20.84   0
   1  -2  10 1040.21   37.48   0
   1  -1   3   58.33   15.97   0
   1  -1  12  465.79   30.40   0
   1   7   5  590.19   38.90   0
   1   8   6  262.92   33.17   0
   1  11  13  434.57   38.99   0
   1  11  14   12.16   31.56   0
   2   1   8  359.25   22.46   0
   2   5  14  310.38   24.09   0
   2   6  14   16.22   18.49   0
   2   7  14  350.53   25.43   0
   2   8  11 1033.30   37.42   0
   2   8  12  103.67   23.36   0
  -3  -7  -2    4.11   28.86   0
   1  10   9  695.66   40.87   0
   1  11  12  379.53   39.30   0
   1  11  15  230.81   32.78   0
   2   1  10  125.61   21.26   0
   2   2  12   96.91   21.07   0
   2   3   6  236.84   20.18   0
   2   8  10   97.45   24.75   0
   0  -5   7  227.87   30.57   0
   2   2   6 3090.15   51.11   0
   2   4   6 1640.31   40.38   0
   2   4  14  623.37   29.10   0
   0   9   5 1246.28   86.09   0
   1  -3   7   20.17   19.59   0
   1  -2  11   53.60   26.04   0
   1   0  14  199.66   25.72   0
   1  11  11  139.64   36.34   0
   2   5  15  207.44   24.26   0
   2   6  15  586.78   27.50   0
   2   7  15  111.47   23.02   0
   0  -5   4 2644.19   62.08   0
   0  -4  11  160.25   32.15   0
   1  -1  13   -2.25   25.51   0
   1   9   7 1472.12   54.59   0
   2   1   6 3223.43   52.16   0
   2   3  14  254.08   23.69   0
   2   8   9 1646.66   45.17   0
   2   9  12  345.14   29.06   0
   2   9  13  925.07   34.98   0
   2   9  14   -5.96   25.31   0
   0  -5   8  415.04   34.45   0
   2   0   8  613.05   25.92   0
   2   0   9  498.99   25.40   0
   2   1  12  242.63   21.96   0
   2   4  15   32.41   22.08   0
   2   5   6 1964.69   45.61   0
   2   9  11  316.74   29.03   0
  -1   2  -1   41.39   24.17   0
   2   9  15  427.97   29.18   0
  -1  -7   5   10.61   30.95   0
   0  -5   9  376.05   36.84   0
   1  11  10 1194.18   53.75   0
   2   2  14  114.17   21.24   0
   2   9  10  683.34   35.67   0
   1  -3  10  329.46   29.35   0
   1   1   2 3358.07   79.72   0
   1  10   8  694.02   45.13   0
   2   0   6    7.03   14.84   0
   2   1  13  272.99   25.89   0
   2   2   5  108.03   16.35   0
   2   3   5 3624.43   60.15   0
   2  10  13  220.08   29.45   0
   2  10  14  363.04   30.64   0
   0  -4  12  105.49   34.28   0
   1  -2   3 2419.94   57.28   0
   2   1   5  940.84   32.41   0
   2   7   7 2018.09   50.72   0
   2  10  12  738.66   39.99   0
   2  10  15  409.78   29.92   0
  -1  -6   1  948.20   89.35   0
   0  -5   3  879.52   44.32   0
   1   0   2  431.88   31.16   0
   2   8   8  702.27   33.74   0
   0  -5  10  107.93   33.86   0
   1  -2  13  205.19   28.72   0
   1   2   2 3227.62   83.01   0
   2  -1   7   66.84   18.21   0
   2  10  11   19.44   29.71   0
   2   9   9  183.24   28.19   0
   3   4  11  363.46   24.91   0
   3   5  11    8.74   19.98   0
   3   6  11 1112.87   33.96   0
   3   6  12  311.74   24.07   0
   2  -1  11  297.02   27.72   0
   2   0   5 1812.83   42.26   0
   3   4  12  295.75   26.47   0
   3   5  10 1359.29   36.12   0
   3   5  13   88.13   22.23   0
   3   6  13  248.68   22.01   0
  -1  -7   3   15.39   36.10   0
   1  -4   7  804.92   35.61   0
   1  -4   8    7.36   25.99   0
   2  -1   6 2278.18   45.05   0
   2  11  14  363.22   33.50   0
   2  11  15    2.59   28.04   0
   3   3  10    9.60   18.83   0
   3   4   9   54.89   17.40   0
   3   6  10   35.44   19.10   0
   3   6  14  490.40   25.51   0
   3   7  13  488.53   27.43   0
   3   7  14   76.61   23.46   0
   1  -4   6 1215.04   40.16   0
   1  -3  12   68.61   26.86   0
   1  11   9  -10.99   38.59   0
   2   5   5  273.87   25.82   0
   2  11  13   92.27   33.48   0
   3   3  12   76.64   22.49   0
   3   5   9 1186.50   33.48   0
   0  -6   6  367.21   33.98   0
   1  -1   2 5238.81   92.82   0
   2  -1  12   65.06   25.18   0
   2  10  10  705.26   41.88   0
   3   2  10 1004.69   33.21   0
   3   2  11  252.96   23.67   0
   3   3  13  368.61   26.97   0
   3   4  14   13.12   21.75   0
   3   6  15    8.52   21.66   0
   3   7  15  348.17   26.69   0
   3   8  12  813.31   33.63   0
   2  -2   9 1121.33   38.84   0
   2  11  12  309.83   39.58   0
   3   2  12  803.51   31.11   0
   3   4   8 1564.81   37.46   0
   0  -6   5  856.55   42.77   0
   1  -4   5  128.47   23.98   0
   1  -4  10   47.50   29.50   0
   2  -2  10    0.26   24.33   0
   2   1   4 5649.59   76.43   0
   3   3  14  419.89   28.03   0
   3   5   8  573.82   26.96   0
   3   8  11   15.10   22.84   0
  -1   1  -1  144.07   28.14   0
   1   9   6  465.39   47.80   0
   2  -1   5 2252.78   46.57   0
   2  -1  13  458.30   31.28   0
   2   7   6  140.79   26.64   0
   2   9   8 1933.94   56.11   0
   3   2   8   63.78   18.18   0
   3   2  13   -1.53   19.94   0
   3   9  13   30.86   24.66   0
   3   9  15   37.49   25.62   0
   1   3   2   53.09   22.89   0
   1   8   5 1308.34   65.42   0
   3   1   9    9.71   20.25   0
   3   1  11  253.66   23.69   0
   3   8  10  773.48   35.34   0
   3   9  12  408.75   30.57   0
   1  -4  11  460.27   38.49   0
   2   0   4  698.19   30.23   0
   2  11  11  820.89   48.08   0
   3   1  12  561.99   26.94   0
   3   2  14  608.13   30.05   0
   3   3   7  927.39   30.87   0
   3   6   8  169.55   20.51   0
   2  10   9  385.95   39.30   0
   3   1   8 1327.32   35.12   0
   3   4   7  698.52   28.20   0
   3   9  11  543.53   33.36   0
   3  10  14  287.35   30.68   0
   3  10  15  245.78   29.68   0
  -2  -3  -2 3662.39   83.17   0
   0  -6   4 1007.55   47.92   0
   1  10   7   22.48   41.55   0
   2  -2  12   64.98   26.87   0
   3   1  13  537.33   30.93   0
   3  10  13  536.72   35.21   0
  -3  -7  -1 1001.10   55.57   0
   0  -5   2 1694.06   65.26   0
   1  -4  12  146.27   35.97   0
   2   4   4 3943.46   72.59   0
   3   0  10   98.77   21.09   0
   3   5   7 3639.63   57.18   0
   1  -2   2 2938.95   70.18   0
   1   7   4 1336.00   68.91   0
   2  -3   8   47.70   24.44   0
   2  -3   9  696.87   34.58   0
   3   1   7  717.52   28.26   0
   3   8   9  129.71   25.22   0
   3  10  12   72.93   30.63   0
  -2  -1  -2 5106.19   91.60   0
   1  -5   7  586.88   38.56   0
   1  -5   8  221.30   33.97   0
   2  -3   7  782.57   34.81   0
   2  -2  13  164.42   27.58   0
   2  -1   4  474.43   26.86   0
   3   0   8  856.08   30.02   0
   3   9  10   64.10   28.21   0
  -2  -2  -2  976.83   44.09   0
   1  -5   9  341.56   38.78   0
   2  11  10   22.27   36.79   0
   3   3   6 2981.35   51.93   0
   3  11  15  476.16   35.06   0
   3   0   7  127.13   20.49   0
   3   0  13  517.03   31.96   0
   3   2   6  431.87   23.97   0
   3  11  14   71.06   28.32   0
   4   5  12    8.07   21.81   0
   4   5  13  728.61   30.92   0
   4   6  12  434.28   26.17   0
   4   6  13  563.61   27.96   0
   4   6  14   72.61   22.38   0
   1  -5  10  498.78   41.33   0
   2  -3   6  412.87   27.61   0
   3   4   6  974.78   33.03   0
   3  10  11  700.43   39.25   0
   3  11  13  310.39   38.49   0
   4   4  12  575.98   30.42   0
   4   4  13   58.97   24.64   0
   4   5  11  758.45   31.92   0
   4   5  14  216.99   26.10   0
   4   6  11  128.62   23.47   0
   4   7  12 1050.99   35.46   0
   4   7  13   51.61   22.55   0
   4   7  14  621.69   30.55   0
   3  -1  11  429.29   31.33   0
   3   1   6  216.40   21.03   0
   4   4  14  378.39   28.22   0
  -1  -2  -1   39.12   24.74   0
   2  -3  12  225.65   31.38   0
   2   9   7  105.19   34.81   0
   4   3  11   51.91   21.97   0
   4   3  13  255.18   24.60   0
   4   4  10  204.25   23.44   0
   4   5  10  179.33   23.01   0
  -1  -7   2 1473.76   95.41   0
   0  -6   3  546.41   43.54   0
   3  -1  12  509.41   32.74   0
   3   5   6    1.81   15.52   0
   3   9   9  707.68   38.45   0
   4   6  10  839.13   31.89   0
   2  -2   4 2492.56   53.17   0
   2   1   3   32.40   14.78   0
   2  10   8  166.63   36.09   0
   3   0   6 1869.86   42.06   0
   3  11  12  337.63   41.40   0
   4   2  12   70.89   21.11   0
   4   4   9 1429.86   38.03   0
   4   9  14   13.32   25.67   0
  -1  -1  -1 4445.23  122.66   0
  -1   5   1   32.35   33.77   0
   2  -3   5 1849.62   47.08   0
   2   2   3 5483.81   85.60   0
   3  -1  13   33.98   25.47   0
   3   7   7   37.25   22.16   0
   3  10  10  134.30   36.24   0
   4   2  10  681.32   31.38   0
   4   2  13  675.85   29.50   0
   4   9  13  497.95   32.99   0
  -2  -5  -1 1582.71   69.14   0
   2  -4   8  954.85   41.69   0
   2  -4   9  -16.81   30.25   0
   2  -4   7  239.29   30.33   0
   2   7   5 1419.18   54.30   0
   3  -2   9  244.38   29.09   0
   3  -2  10 1101.37   40.16   0
   3   3   5   43.99   18.06   0
   4   2   9  273.88   25.65   0
   4   6   9  234.95   23.95   0
   4   9  12  247.71   29.16   0
   4  10  14  255.26   31.94   0
   2  -4  11  143.29   36.41   0
   2  11   9  697.05   51.72   0
   3  -2   8  422.10   30.89   0
   3  -2  11   11.85   26.76   0
   3   1   5 1930.57   43.41   0
   4   1  10   61.43   21.41   0
   4   1  12  188.47   26.07   0
   4   4   8   32.25   18.49   0
   3  -2  12  356.35   32.21   0
   3  -1   6  426.63   25.19   0
   3  11  11   69.88   38.80   0
   4   5   8 2147.90   45.42   0
   4   8  10   13.00   26.47   0
   4  10  13   34.85   28.20   0
   1   4   2   82.66   33.99   0
   2  -1   3 2261.02   52.73   0
   3   4   5  828.06   32.53   0
   4   1   9  843.88   32.41   0
   4   2   8 2025.31   42.31   0
   4   9  11  453.93   33.30   0
   1   6   3  375.03   53.07   0
   3   0   5  335.41   23.23   0
   3   9   8   12.51   27.87   0
   4   1   8  300.55   25.61   0
   4  10  12  966.84   42.32   0
   4  11  14  297.32   36.45   0
   1  -6   6 1079.69   45.95   0
   3   8   7 2510.77   61.10   0
   3  10   9  696.90   45.98   0
   4   0   9  373.51   26.13   0
   4   2   7   10.32   18.06   0
   5   5  13   34.24   23.41   0
   5   6  13  252.13   23.39   0
   5   7  13  816.21   33.77   0
   5   7  14   53.05   25.22   0
   2  -4   5 1265.67   42.88   0
   3  -3   9  215.90   29.95   0
   3  -3  10  262.67   31.86   0
   3  -3  11  293.23   31.98   0
   3  -1   5 2136.95   45.61   0
   4   8   9  362.12   33.06   0
   4   9  10  800.15   39.01   0
   4  11  13  112.80   32.83   0
   5   4  13  673.49   33.17   0
   5   6  12  309.59   24.69   0
   2  -5   9  491.26   42.46   0
   2  -2   3  680.97   33.60   0
   2   6   4  469.57   38.73   0
   3  -3   8 1513.89   44.92   0
   3   7   6 1907.22   53.85   0
   3  11  10  551.33   47.40   0
   4   0   8  277.91   24.91   0
   4   1   7  321.10   23.62   0
   4   5   7   14.65   17.69   0
   4  10  11   65.43   34.02   0
   5   4  11  322.01   28.98   0
   5   5  11   41.61   23.59   0
   5   7  12   59.28   24.26   0
  -2   1  -1 3916.67   84.06   0
   1  -6   5  963.98   46.05   0
   2   4   3  410.55   33.95   0
   3  -3  12   11.93   30.68   0
   4  -1  10  599.58   33.76   0
   4  -1  11  395.64   32.46   0
   5   3  12  131.65   23.81   0
   5   3  13  383.30   28.71   0
   5   6  11  640.17   29.67   0
   1   0   1 3863.11   99.70   0
   2  -5   7  141.02   33.94   0
   3  -3   7   15.45   25.63   0
   3   1   4   58.59   18.42   0
   4  -1  12  312.78   29.81   0
   5   3  11  691.62   32.34   0
   5   4  10  819.32   32.88   0
   1  -5   3  504.60   37.67   0
   1  -1   1  147.27   26.20   0
   4  11  12  328.64   42.35   0
   5   2  12  515.02   28.88   0
   5   5  10  396.97   27.86   0
   5   9  13  197.68   31.02   0
   3   0   4  920.18   33.48   0
   4   0   7 1913.04   42.51   0
   4   3   6  535.41   28.17   0
   4   6   7  773.08   32.26   0
   5   2  11  169.34   24.92   0
   5   3  10   82.85   22.55   0
   5   6  10    1.51   21.54   0
  -3  -7   0  346.41   45.03   0
   1  -4   2 1451.28   53.78   0
   2   9   6  787.11   56.63   0
   2  10   7  808.16   60.08   0
   4   2   6 1775.49   40.07   0
   5   8  11   21.65   26.29   0
   5  10  14   41.17   28.02   0
   0  -6   2 2270.79   84.79   0
   1   1   1 5048.99  122.47   0
   3  -3   6  865.71   36.50   0
   4   1   6  562.84   28.02   0
   4   4   6  370.57   25.60   0
   4   9   9   15.36   29.33   0
   4  10  10  817.95   46.17   0
   5   2  10  357.44   25.87   0
   5   3   9  745.60   33.35   0
   5   4   9  168.43   24.65   0
   5   5   9  324.32   27.46   0
   5   9  12  511.06   34.81   0
   2  -4   4   30.23   22.96   0
   3  -4  10   22.43   34.72   0
   4   8   8  656.50   36.27   0
   5   1  11   44.53   22.55   0
   5  10  13  546.04   36.24   0
  -2  -6   0 1262.31   73.28   0
   3  -4  11  232.04   38.73   0
   3  -1   4 1612.15   41.59   0
   3   4   4   91.73   20.80   0
   4  -2  10   16.64   27.50   0
   5   2   9  984.77   35.04   0
   5   6   9  725.55   32.30   0
   1  -6   4  442.58   38.34   0
   2   0   2  586.08   32.57   0
   3  -4   8  175.08   32.26   0
   3  10   8  984.68   53.17   0
   4   0   6   77.90   18.91   0
   4   5   6 1930.93   45.37   0
   4  11  11  674.29   50.62   0
  -2   0  -1  596.31   36.07   0
   1   9   5 1095.82   99.56   0
   2   1   2 4754.72   85.73   0
   2   8   5   47.75   33.86   0
   3  11   9    3.53   43.86   0
   4  -2   8  466.37   32.86   0
   5   3   8  658.57   31.43   0
   5   4   8 1731.24   42.59   0
   5   8  10  720.35   37.01   0
   5   9  11  432.65   34.50   0
   5  11  14   77.15   32.24   0
   3  -4   7  685.43   37.74   0
   5   1   9   47.83   22.66   0
   5   5   8  308.68   27.04   0
   5  10  12   -7.69   30.57   0
   2  -1   2   58.49   17.61   0
   3  -3   5  141.53   23.34   0
   3   8   6   80.29   30.68   0
   5   2   8    1.84   20.60   0
   6   7  13   -5.32   26.21   0
   3  -2   4   74.55   20.04   0
   4  -1   6 1063.51   34.20   0
   4   2   5  998.46   33.94   0
   5  11  13  292.52   35.86   0
   6   5  12    2.59   24.40   0
   6   6  12  515.47   28.23   0
  -2  -3  -1 1764.87   63.41   0
   0  -7   3 1102.13   65.97   0
   2   2   2  918.49   42.46   0
   4  -2   7  375.98   29.62   0
   4   1   5  259.74   23.08   0
   4   3   5 3157.24   56.02   0
   5   0   9  543.21   30.55   0
   5   1   8 1731.74   42.97   0
   5   6   8  520.07   29.95   0
   6   4  12  532.01   31.24   0
   6   7  12  676.72   34.36   0
  -2  -1  -1 1772.95   57.80   0
  -1   2   0 2396.63   90.15   0
   3  -4   6  523.79   34.51   0
   4  -3  10  292.03   32.01   0
   4  -3  11   50.78   30.76   0
   4  10   9  524.41   46.81   0
   5   9  10  212.51   32.70   0
   6   3  12  587.58   32.48   0
   6   4  11  328.81   30.33   0
  -2  -7   1 1243.67   84.34   0
   3   5   4  300.08   29.89   0
   4  -3   9  506.57   35.05   0
   4   0   5 1920.68   43.52   0
   4   4   5  313.52   24.45   0
   4  11  10    2.78   41.67   0
   5  -1  11  373.70   33.46   0
   5   3   7  420.42   26.22   0
   5   4   7  302.41   25.23   0
   5   8   9  116.39   29.80   0
   5  10  11  779.87   42.01   0
   6   6  11   89.04   23.08   0
  -2  -2  -1 5219.76   99.35   0
   3  -5   9  186.63   38.54   0
   3   0   3 1035.82   36.84   0
   3   1   3 5017.12   74.73   0
   4  -3   8   95.42   27.94   0
   4   8   7  209.26   32.86   0
   5  -1  10   68.49   28.94   0
   5   0   8 1291.98   37.60   0
   5   2   7 1921.47   43.83   0
   5  11  12  457.63   44.95   0
   6   3  11    9.12   22.44   0
   6   9  13  360.91   32.62   0
   3  -5   8  184.03   40.31   0
   5   1   7  998.24   35.43   0
   5   5   7 1266.62   37.66   0
   6   4  10  113.71   27.38   0
   6   5  10  203.05   25.98   0
   1   2   1   48.89   27.41   0
   2   7   4  883.45   56.26   0
   6   2  11  304.61   25.73   0
   6   3  10  472.28   32.15   0
   6   6  10 1050.94   35.39   0
   3  -1   3   60.84   18.55   0
   4  -1   5 1063.92   35.08   0
   6   8  11  650.36   35.82   0
   6   9  12  216.31   31.90   0
   1  -6   3 1719.63   63.90   0
   1  -5   2 1241.54   55.18   0
   3  -4   5  385.44   31.07   0
   4   5   5  124.44   20.95   0
   4   7   6  343.45   30.96   0
   5   0   7   75.07   22.23   0
   6   2  10  360.51   28.48   0
   6  10  13   22.46   30.40   0
   3   3   3 3032.02   63.51   0
   5  -2  11   11.53   29.14   0
   5   6   7  617.13   30.45   0
   5  10  10  360.89   42.47   0
   6   1  11  577.14   33.38   0
   6   3   9  260.44   28.79   0
   6   4   9  988.25   36.21   0
   6   5   9  501.84   30.59   0
   4  -4  10  272.90   41.15   0
   5  -2  10  417.42   34.15   0
   5   2   6  152.77   21.50   0
   5  11  11  122.74   44.06   0
   2  -6   5  476.57   38.59   0
   4  -4   9   22.30   34.14   0
   5   1   6  344.67   25.65   0
   5   4   6 1069.24   36.05   0
   5   8   8  512.40   37.67   0
   6   1  10   22.15   21.26   0
   6   2   9   94.99   24.51   0
   6   6   9   39.55   23.22   0
   6   9  11  172.85   33.39   0
   3  -5   6   -7.16   33.02   0
   3  -2   3 2431.13   52.69   0
   4  -3   6   71.34   28.16   0
   5  -2   9  104.39   29.53   0
   6   8  10   82.04   28.57   0
   6  10  12  389.44   35.15   0
   3  10   7   43.31   38.95   0
   3  11   8  784.91   63.10   0
   4   3   4   18.83   18.01   0
   4  10   8  288.33   45.33   0
   6   1   9  978.22   34.42   0
   6   4   8   25.38   23.73   0
   6  11  13  177.82   37.91   0
   4  11   9  591.97   52.22   0
   5  -2   8  445.25   33.59   0
   6   3   8  442.14   29.91   0
   3   4   3 3132.08   67.71   0
   3   9   6  842.75   53.99   0
   6   2   8 1109.80   37.60   0
   6   5   8  666.62   33.35   0
   1  -7   4  752.18   51.40   0
   3  -4   4 1421.91   45.01   0
   4  -1   4  292.63   23.41   0
   7   5  11  113.20   25.73   0
   4   4   4 1131.51   38.53   0
   5  -3  10  188.54   33.02   0
   5  10   9  252.48   42.66   0
   6   1   8  308.61   26.76   0
   6   6   8  874.65   34.98   0
   6   9  10  533.20   39.98   0
   6  10  11   53.68   32.06   0
   7   4  11  107.12   28.00   0
   7   6  11  692.51   32.46   0
   3  -5   5 1131.19   46.47   0
   5  -2   7  471.33   32.93   0
   5  -1   6  818.75   33.22   0
   5   2   5 1440.47   39.37   0
   5   9   8   56.80   33.76   0
   5  11  10  759.54   54.35   0
   6   8   9  963.44   43.08   0
   6  11  12  122.67   36.90   0
   5  -3   9  145.40   31.60   0
   5   1   5  698.63   30.93   0
   5   3   5   12.84   19.57   0
   6  -1  10  457.24   34.26   0
   6   3   7 1375.27   41.01   0
  -2  -5   0   12.13   24.78   0
   2  -6   4 1133.80   49.47   0
   4  -4   6  295.06   32.95   0
   6   0   8  294.93   29.05   0
   6   2   7   43.93   23.68   0
   6   4   7 1006.20   35.59   0
   7   4  10  471.19   31.81   0
   7   5  10  445.26   29.55   0
   2   6   3 3652.13   98.80   0
   3   0   2  935.07   36.73   0
   5  -3   8  622.22   38.73   0
   5   0   5   86.48   20.35   0
   6  -1   9   -1.76   28.47   0
   6   1   7  765.32   33.59   0
   6   5   7   14.05   22.77   0
   7   3  10  128.07   26.93   0
   7   6  10   -1.17   21.60   0
   7   8  11    0.39   26.65   0
   2  10   6   14.66   53.55   0
   3   1   2  779.76   35.32   0
   4   5   4 1620.35   47.38   0
   7   2  10  152.74   25.39   0
  -1   1   0 3269.23  104.55   0
   3  -1   2 2688.97   57.36   0
   4  -5   8  343.14   39.74   0
   6  10  10  318.31   37.73   0
   7   4   9   -6.30   25.79   0
   4   0   3  690.83   30.80   0
   4   1   3 1104.09   35.78   0
   5  -3   7   15.92   28.51   0
   5  -1   5  176.65   22.88   0
   5   7   6 1244.23   43.83   0
   6   0   7  786.82   33.51   0
   6   6   7  730.56   34.23   0
   6   9   9   70.36   31.71   0
   6  11  11  401.07   47.44   0
   7   3   9  374.28   30.47   0
   7   5   9  512.28   30.91   0
  -1   8   4   27.95   42.62   0
   2  -1   1 3717.90   78.07   0
   2   0   1  589.49   34.60   0
   3   2   2 4004.19   73.73   0
   4  -5   7   37.00   37.87   0
   4   2   3 3025.59   57.65   0
   6   8   8  380.83   35.68   0
   7   1  10  576.83   33.44   0
   7   2   9  343.10   27.93   0
   7   6   9  639.44   31.46   0
   7   9  11  330.78   33.37   0
   3  -4   3   94.26   25.38   0
   4  -3   4  854.12   35.24   0
   6   2   6  471.46   30.24   0
   6   3   6   17.68   22.72   0
   7   8  10  579.67   35.99   0
   3  -2   2 1493.17   43.78   0
   4  -1   3 2607.22   51.94   0
   5  -4   9  429.88   40.63   0
   6  -2   9  279.77   32.54   0
   6   1   6 1023.47   36.87   0
   6   4   6  891.88   36.36   0
   1  -6   2    6.55   33.24   0
   2  -2   1 4539.71   84.31   0
   2   1   1 1774.09   58.54   0
   3   7   4  561.38   41.39   0
   4   3   3 2270.90   52.90   0
   4  11   8   38.12   47.18   0
   5   2   4 2232.53   47.50   0
   5  11   9   65.47   46.16   0
   7   1   9   15.52   22.20   0
   7   3   8  331.36   32.03   0
   7   4   8  886.99   37.12   0
   4  -5   6 1420.63   53.96   0
   5  -4   8  130.22   32.18   0
   5   0   4 1710.48   42.37   0
   6  -2   8  412.16   35.68   0
   6   0   6   99.27   23.09   0
   7   2   8   27.71   25.22   0
   7   5   8  179.97   27.35   0
   4  -2   3 1371.73   40.54   0
   5   3   4 2107.55   46.94   0
   7   9  10    9.18   31.80   0
   7  10  11  364.79   36.92   0
   1  -7   3  326.32   45.79   0
   6  11  10   12.41   43.39   0
   7   1   8  330.49   26.94   0
   7   6   8  126.19   24.87   0
   2  -6   3    7.02   30.37   0
   5  -4   7  392.45   35.31   0
   5  -1   4 2310.61   48.22   0
   7   8   9  283.14   33.05   0
   2  -5   2  201.52   30.76   0
   4  -4   4    3.77   26.65   0
   4   4   3  209.43   23.62   0
   5   4   4  255.12   25.00   0
   5   8   6   13.94   29.38   0
   6  -3   9  420.62   37.23   0
   6  -2   7  110.07   28.95   0
   6   2   5  475.04   29.18   0
   7   3   7  135.20   28.36   0
  -2   0   0   90.51   19.22   0
   5  -3   5  441.12   33.57   0
   6   1   5  150.13   25.55   0
   7   2   7  628.27   32.54   0
   7   4   7  195.32   27.69   0
   8   6  10  383.70   29.00   0
   4  -5   5  193.24   35.69   0
   4   8   5   22.57   31.21   0
   7   5   7  770.73   34.29   0
   5  -4   6  678.87   38.98   0
   6  -3   8   -1.47   29.45   0
   6   0   5  908.25   34.91   0
   7   1   7  332.03   26.86   0
   7  10  10  210.29   36.63   0
   7  11  11    7.96   41.49   0
  -1   5   2 1090.78   57.25   0
   1  -5   1  739.13   49.22   0
   5   5   4 1323.48   42.87   0
   6  -2   6  681.09   36.31   0
   8   3   9   90.00   27.43   0
   8   4   9  435.89   32.10   0
   8   5   9  165.19   29.08   0
   2  -7   4   18.87   34.24   0
   5   7   5  974.28   42.29   0
   6   7   6  294.77   33.48   0
   7  -1   8   33.71   28.84   0
   7   0   7   17.52   24.33   0
   8   6   9   40.49   25.16   0
   3   6   3  108.53   30.17   0
   4   1   2 2082.36   49.78   0
   5   1   3 2022.95   46.65   0
   6  -3   7  469.36   35.66   0
   6  -1   5  818.74   33.76   0
   6   5   5   88.67   24.07   0
   7   8   8  354.60   33.70   0
   8   8  10   45.40   29.89   0
  -2  -1   0  873.70   41.12   0
  -1   3   1 4046.48  106.52   0
   3  -4   2 1841.91   51.13   0
   3   4   2  484.77   34.45   0
   4  -1   2  241.19   22.91   0
   5   0   3 1286.42   37.95   0
   5   2   3   11.52   18.77   0
   7   2   6  183.83   26.93   0
   7   3   6 1195.19   39.46   0
   7   4   6  297.99   30.70   0
  -2  -3   0 2308.93   69.92   0
   4   2   2   47.78   20.07   0
   5  -5   7  340.04   38.75   0
   5  -4   5   37.47   26.96   0
   5  -3   4  381.91   32.20   0
   5  10   7  108.72   43.22   0
   5  11   8  445.45   50.86   0
   6  10   8   83.17   43.63   0
   6  11   9  591.29   53.62   0
   7   1   6  167.68   26.67   0
   8   3   8  286.43   29.24   0
   8   4   8    7.63   24.18   0
   3  -1   1   43.20   19.84   0
   3   0   1 5021.95   79.87   0
   4  -5   4  868.01   42.83   0
   5  -1   3   15.59   18.72   0
   6   1   4 1180.57   37.32   0
   6   2   4  498.75   28.76   0
   6   9   7  185.93   37.94   0
   8   5   8  515.67   30.62   0
  -2  -2   0 1846.27   59.49   0
   4  -4   3 1462.38   45.42   0
   4  -2   2  742.37   31.25   0
   6  -4   8  383.05   38.19   0
   6  -3   6   60.05   30.98   0
   6   3   4  300.27   25.95   0
   7  -2   8  210.36   29.95   0
   7   0   6  531.40   29.99   0
   7   5   6   38.97   23.45   0
   7  10   9  110.48   36.98   0
   7  11  10  434.11   49.65   0
   8   2   8  408.58   30.57   0
   8   9  10  322.96   33.23   0
   5   9   6  422.67   42.62   0
   6   0   4  122.94   24.88   0
   8   6   8  315.60   31.32   0
   8   8   9  204.84   32.91   0
   3  -2   1 1631.06   46.31   0
   3   1   1 2536.13   58.86   0
   4   3   2  935.05   37.56   0
   5  -5   6   -2.37   34.45   0
   7   9   8   21.24   34.17   0
   8   1   8  118.32   25.77   0
   6  -1   4   36.97   22.10   0
   6   4   4 1649.55   44.43   0
   8   3   7  512.87   33.25   0
   0  -4  -8   41.41   21.82   0
   4  -2   0   17.49   35.69   0
   5  -2   0 1686.13   73.87   0
   7  -4  -5  115.82   43.30   0
   1  -5 -12 1042.19   37.58   0
   1  -5 -11   31.66   24.66   0
   1  -4 -15  244.72   33.64   0
   6  -5  -7  312.29   38.32   0
   6  -4  -4  621.54   46.09   0
   7  -5  -9  117.55   36.19   0
  -2  -1  -6 3248.44   89.86   0
  -1  -3 -12  419.04   37.26   0
   0  -4 -13   11.31   27.74   0
   0  -3 -15  342.04   37.03   0
   0   2   2 1365.90   67.92   0
   5  -5  -6  109.12   35.97   0
   7  -5  -8  346.50   43.60   0
   8  -4  -6    4.65   44.58   0
  -1  -2 -14  461.76   47.09   0
   3  -6 -12  339.03   35.17   0
   3  -6 -11  439.27   36.33   0
   3  -5  -6   17.62   24.68   0
   4  -6 -13  603.98   37.84   0
   4  -6 -12  204.68   33.77   0
   4  -6 -11  293.44   31.88   0
   4  -6 -10  566.11   37.81   0
   5  -6 -12  339.67   34.80   0
   5  -6 -11  307.86   31.38   0
   6  -2   0   53.96   46.82   0
  -2  -1 -12  218.58   43.03   0
  -1  -3  -7  336.82   32.71   0
   3  -6 -13   61.43   26.53   0
   5  -6 -10  146.49   31.66   0
  -1  -3 -13  351.17   39.60   0
   0  -4 -14  713.61   39.60   0
   1  -5 -14  210.78   30.67   0
   1  -3  -3 2649.09   70.58   0
   4  -6  -9  123.93   30.00   0
   6  -5  -6  938.97   49.06   0
   7  -5  -7  207.64   41.32   0
  -2  -2 -10  536.51   42.79   0
  -2  -2  -9  616.76   42.45   0
  -2   3  -1  126.03   34.88   0
   2  -6 -12  414.29   32.28   0
   2  -6 -11  129.19   30.68   0
   3  -6 -14  486.08   32.91   0
   3  -6  -9 1296.72   46.58   0
   7  -4  -4  487.40   54.49   0
   0  -3 -16   11.53   39.58   0
   2  -6 -13  420.54   29.80   0
   2  -6 -10 1260.38   44.16   0
   2  -3  -2 2485.78   71.94   0
   4  -6  -8  523.76   37.82   0
   8  -4  -5  445.89   52.60   0
  -2  -2 -11  744.80   46.06   0
  -1  -3 -14  458.60   45.98   0
   0  -4 -15   55.87   31.60   0
   2  -6 -14   20.06   25.10   0
   5  -5  -5 2197.09   64.34   0
   6  -6  -9   33.11   38.59   0
  -2  -2  -8 1554.90   54.77   0
  -1  -4 -11  668.30   37.25   0
   0  -5 -10   40.21   23.01   0
   2  -6  -9   18.94   27.60   0
   3  -6  -8  129.21   31.62   0
  -1  -4 -12  248.31   33.35   0
  -1  -4 -10 1231.54   44.41   0
  -1   3   1 4109.20  100.73   0
   0  -5 -13  867.21   39.50   0
   0  -4  -6 1255.32   45.43   0
   3  -5  -5 1006.36   42.54   0
   6  -4  -3  217.95   45.75   0
   7  -5  -6  113.45   40.65   0
  -2  -2 -12   73.32   37.99   0
   0  -5  -9 2000.29   49.97   0
   1  -6 -13  236.83   30.99   0
   1  -6 -12  286.96   28.79   0
   1  -6 -11  674.95   36.29   0
   6  -5  -5    3.33   36.29   0
  -3   1  -8  250.70   70.96   0
  -1  -4 -13 1152.97   48.27   0
   0  -5 -14  308.90   36.36   0
   0  -4 -16  174.17   39.12   0
   1  -6 -10   47.18   27.23   0
   2  -6  -8 2782.16   58.03   0
   4  -7 -12  645.89   38.86   0
   4  -6  -7  253.61   32.52   0
   5  -6  -7  853.54   46.99   0
   8  -5  -7  187.14   45.47   0
  -2  -2  -7  242.63   33.92   0
  -1  -3 -15   27.04   42.20   0
   3  -7 -13  324.78   33.04   0
   3  -7 -12  -17.08   29.98   0
   3  -6  -7 1078.47   42.71   0
   4  -7 -11   -3.90   29.44   0
   7  -2   0  685.88   62.21   0
   0  -5  -8 2047.06   51.81   0
   3  -7 -11  679.29   40.45   0
   5  -7 -11  477.08   40.34   0
   6  -3  -1  613.93   52.97   0
  -1  -4 -14   16.21   35.55   0
  -1  -4  -8 3057.85   62.99   0
   0  -5 -15   91.73   30.74   0
   1  -6 -15   26.96   28.53   0
   1  -6  -9 1652.30   45.53   0
   1  -5  -6  992.62   40.55   0
   2  -5  -5   63.85   25.07   0
   4  -7 -10  627.41   36.82   0
   4   3   5 3127.30  107.32   0
   6  -6  -7   55.57   39.67   0
   7  -6  -8   12.54   37.98   0
   1  -4  -4  439.18   32.26   0
   2  -7 -13   -2.92   25.93   0
   2  -7 -12  610.42   36.00   0
   3  -7 -10   89.96   30.10   0
   5  -5  -4  -20.35   35.58   0
   7  -5  -5  593.53   52.50   0
  -2  -3 -11  240.52   37.51   0
  -2  -3 -10 1492.94   52.58   0
   2  -7 -14  309.88   28.11   0
   2  -7 -11  134.42   30.08   0
   2  -4  -3   33.08   25.71   0
   4  -7  -9  272.45   32.29   0
   8  -5  -6  230.00   49.33   0
  -2  -3 -12  678.02   47.44   0
   0  -5 -16  277.09   35.66   0
   3  -7  -9  477.41   36.31   0
   5  -6  -6  342.52   39.11   0
   6  -7 -10  317.05   39.46   0
  -2  -3  -9   76.82   27.79   0
  -1  -5 -12 1032.97   44.59   0
  -1  -5 -11  340.13   33.55   0
   0  -6 -11  492.69   32.73   0
   0  -4  -5 2966.35   66.33   0
   1  -6  -8  140.36   25.21   0
   1  -2  -1  328.99   39.00   0
   2  -7 -10  670.09   39.23   0
   3  -6  -6  641.17   36.89   0
   3  -5  -4 1348.66   47.71   0
   6  -5  -4  654.78   49.97   0
   7  -6  -7  369.88   41.83   0
  -1  -5 -13  318.78   33.87   0
  -1  -4  -7  290.78   28.38   0
   0  -6 -14   53.19   29.29   0
   0  -6 -10  605.18   35.29   0
   0  -5  -7  111.33   24.91   0
   1  -7 -13  904.23   37.37   0
   4  -4  -2 1647.32   61.36   0
   6  -7  -9  296.93   40.36   0
   6  -6  -6  438.88   45.14   0
  -2  -3 -13  406.44   44.29   0
  -1  -3  -5  320.49   31.24   0
   1  -7 -12    7.40   25.09   0
   5  -7  -8  558.42   45.05   0
   5   3   5    2.17   50.34   0
   7  -3  -1  260.86   50.24   0
  -3   0  -9  947.09   71.13   0
  -2  -3  -8  782.77   43.64   0
  -1  -5 -14  423.68   38.11   0
   0  -6 -15  433.93   35.83   0
   0  -2  -2 1487.06   65.21   0
   1  -7 -11  902.99   39.52   0
   2  -7  -9 1378.13   47.84   0
   3  -7  -8 1041.32   43.71   0
   4  -8 -12   78.22   34.01   0
   0  -6  -9   54.38   24.47   0
   0   3   2  627.81   41.58   0
   3  -8 -13  254.85   34.30   0
   3  -8 -12  308.76   34.41   0
  -1  -5  -9  327.64   28.19   0
   0  -6 -16   60.74   32.22   0
   1  -7 -10  741.62   38.89   0
   1  -5  -5 3060.84   65.62   0
   2  -6  -6  563.03   35.93   0
   4  -8 -11  479.47   34.65   0
   6  -7  -8  143.43   40.38   0
   7  -5  -4   99.33   49.73   0
  -3   0  -8  836.64   70.46   0
  -1  -5 -15  357.68   37.89   0
   1  -3  -2 2537.62   73.05   0
   2  -8 -13  133.31   28.30   0
   2  -5  -4 1590.39   50.76   0
   3  -8 -11  114.45   32.42   0
   5  -6  -5  417.29   42.80   0
   7  -6  -6  103.38   45.08   0
  -2  -4 -12  879.33   47.12   0
  -2  -4 -11  411.84   35.99   0
   1   3   3  316.59   35.11   0
   2  -8 -12  322.21   35.92   0
   2  -7  -8   93.40   30.12   0
   4  -8 -10   32.28   28.09   0
   5  -7  -7   49.32   36.35   0
  -2  -4 -13   43.47   36.35   0
  -2  -4 -10  264.82   32.68   0
   0  -5  -6 3103.16   64.10   0
   0  -3  -3 2415.38   68.61   0
   1  -7  -9  770.54   39.40   0
   3  -8 -10  693.37   39.35   0
   3  -7  -7    2.65   30.18   0
   5  -5  -3  783.27   48.35   0
  -1  -6 -13  162.69   31.84   0
  -1  -6 -12  696.60   40.08   0
  -1  -5 -16  112.64   42.22   0
  -1  -5  -8  946.00   38.38   0
  -1  -4  -6 2726.26   63.04   0
   0  -7 -14  581.00   37.10   0
   0  -7 -12  976.68   38.28   0
   0  -6  -8 1641.02   47.57   0
   2  -8 -11  787.35   41.47   0
   4  -5  -3  814.48   46.12   0
   6  -6  -5  452.50   48.65   0
   7  -7  -8  260.55   41.55   0
   7  -4  -2   17.63   45.34   0
  -1  -6 -14  816.19   44.00   0
   0  -7 -15  157.79   32.66   0
   0  -7 -11   43.07   26.57   0
   6  -7  -7  492.19   44.71   0
  -3  -1 -10  773.92   57.94   0
  -2  -4 -14  589.40   49.81   0
  -2  -4  -9  727.92   39.99   0
   1  -8 -14  120.01   28.12   0
   1  -8 -13  462.50   31.57   0
   1  -4  -3 1921.89   58.29   0
   2  -8 -10   17.41   30.86   0
   5  -8  -9   30.90   37.80   0
   5  -2   1  372.57   58.28   0
  -3  -1  -9    7.70   39.89   0
  -1  -6 -15   21.30   31.26   0
   1  -8 -12  644.00   36.20   0
   1  -6  -6 1169.33   44.69   0
   2  -7  -7 1374.59   46.12   0
   3  -8  -9   77.95   29.54   0
   5  -1   2 1404.52  116.06   0
   0  -4  -4 4274.67   80.67   0
   1  -8 -11   35.98   28.43   0
   1  -7  -8 1617.91   47.68   0
   2  -6  -5 1563.47   49.69   0
   7  -6  -5  142.84   48.11   0
   5  -7  -6  629.04   45.76   0
   5  -3   0  540.79   55.08   0
   7  -7  -7   21.77   42.52   0
  -2  -5 -13  782.50   46.58   0
  -2  -5 -12    8.28   30.22   0
  -1  -6 -16  293.42   38.26   0
   2  -8  -9 1040.27   44.82   0
   2  -4  -2 3736.40   83.14   0
   3  -9 -12  547.79   37.64   0
   4  -6  -4   99.83   34.76   0
   5  -6  -4  463.13   45.53   0
   6  -1   2   73.64   84.34   0
  -1  -6  -9 1970.31   51.12   0
   0  -7  -9 1268.15   42.71   0
   1  -8 -10 1021.96   43.27   0
   1  -5  -4  582.62   36.31   0
   2  -9 -13  500.13   36.81   0
   3  -8  -8  810.39   41.28   0
   6  -7  -6   18.69   38.98   0
  -3  -2 -11  224.45   44.42   0
  -3   0  -7  121.33   56.48   0
  -2  -5 -14  320.84   43.04   0
  -1  -2  -3 1267.61   58.16   0
  -1   3   0 2571.95   78.61   0
   0  -8 -15   54.61   32.42   0
   0  -8 -13  507.98   34.53   0
   2  -9 -12   75.20   32.70   0
   3  -9 -11  302.38   32.42   0
   4  -3   0  729.66   54.95   0
   6  -3   0 1243.36   70.56   0
  -2  -5 -10  358.42   32.45   0
  -1  -7 -14   75.98   34.32   0
  -1  -7 -13  880.31   41.26   0
  -1  -3  -4 3698.11   80.55   0
   0  -8 -12  188.90   28.26   0
   0  -5  -5   35.72   23.47   0
   5  -4  -1 1843.37   69.89   0
   6  -8  -8   54.84   38.58   0
   6  -6  -4   98.63   43.97   0
  -2  -5 -15  189.96   43.62   0
  -1  -7 -15  238.39   34.89   0
   1  -9 -14  477.85   32.16   0
   1  -7  -7  106.04   27.07   0
   2  -9 -11  479.66   38.51   0
   2  -5  -3  748.39   40.22   0
   3   3   4 2520.69   84.39   0
   5  -9 -10  204.47   41.00   0
   1  -9 -13    2.84   26.77   0
   1  -8  -9   47.05   31.52   0
   2  -8  -8  755.06   41.47   0
   2  -7  -6   50.85   25.51   0
   3  -9 -10  280.49   33.36   0
   5   2   4 2191.45  104.52   0
   6  -4  -1  128.15   45.11   0
  -1  -7 -16  173.89   34.87   0
   0  -7  -8  159.97   27.29   0
   1  -9 -12  563.57   36.86   0
   1  -6  -5  722.54   37.70   0
   4  -8  -7  251.73   38.58   0
   5  -8  -7  309.88   42.65   0
   7  -7  -6  355.23   49.12   0
  -1  -6  -8  461.20   30.76   0
   2  -9 -10  461.84   38.04   0
   3  -8  -7  431.18   35.57   0
   4  -7  -5 1140.06   52.42   0
   5  -7  -5   43.68   37.86   0
   6   2   4  488.19   71.49   0
  -3  -3 -12   48.28   40.51   0
  -3  -3 -11 1296.56   57.48   0
  -2  -6 -14   19.50   36.36   0
  -2  -6 -13  471.92   39.47   0
  -2  -6 -12  910.09   43.42   0
   0  -8 -10  -12.11   28.80   0
   0  -6  -6  492.67   31.66   0
   0   2   1 2677.21   93.26   0
   5  -9  -9  455.21   43.64   0
   1  -9 -11  194.70   33.49   0
   2  -6  -4  492.93   33.97   0
   3  -9  -9  756.49   40.00   0
   6  -8  -7  281.32   43.11   0
   6  -7  -5  627.41   54.22   0
  -3  -3 -10    8.26   32.34   0
  -2  -6 -15  580.70   48.21   0
  -2  -6 -11  160.76   32.37   0
  -1  -8 -14  157.14   34.05   0
   1  -8  -8 1332.93   46.91   0
   2 -10 -13  208.35   34.48   0
  -1  -8 -15  289.15   36.42   0
  -1  -8 -13  426.61   35.27   0
   0  -9 -13  786.79   36.09   0
   1   2   2 3261.56  100.89   0
   2  -8  -7  878.16   42.23   0
   4  -1   2  217.13   83.42   0
  -3  -2  -8   65.12   34.48   0
  -1  -8 -16    7.90   30.51   0
  -1  -7  -9  404.31   32.32   0
   1  -9 -10  100.41   34.18   0
   1  -7  -6 1904.61   52.31   0
   2 -10 -12  627.31   41.12   0
   2  -9  -9   98.95   32.36   0
   3 -10 -11  423.40   33.78   0
   5  -6  -3  103.78   41.25   0
  -2  -6 -10 2174.75   52.96   0
   0  -9 -12  142.94   28.10   0
   3  -5  -2 1207.63   52.23   0
   4  -9  -8  685.59   45.19   0
   4  -8  -6  675.09   47.59   0
   4  -6  -3  501.41   41.99   0
   5  -9  -8   16.08   39.89   0
   5  -8  -6  162.73   41.86   0
  -3  -4 -12  295.83   40.00   0
  -3  -3  -9 1799.48   62.47   0
  -3  -1  -7  709.97   58.85   0
  -1  -6  -7  344.39   28.25   0
   1 -10 -13  518.46   36.89   0
  -3  -4 -11  335.64   38.68   0
  -2  -7 -14  360.93   36.78   0
  -2  -7 -13   30.29   29.06   0
  -2   3  -3  181.23   41.83   0
  -1  -8 -11   14.43   25.63   0
   0  -9 -11  385.96   34.28   0
   0  -4  -3  835.58   40.76   0
   1  -4  -2   58.73   24.93   0
   2 -10 -11  -12.93   29.95   0
  -2  -7 -15  121.81   34.97   0
  -2  -7 -12  817.70   41.08   0
  -1   1  -1  123.36   44.27   0
   0  -5  -4 3648.73   72.12   0
   1 -10 -12   68.36   32.03   0
   1  -5  -3 1177.26   45.87   0
   3 -10 -10   36.75   32.60   0
   6  -9  -8  285.86   42.20   0
   6  -8  -6  311.03   47.40   0
  -3  -4 -10  746.41   45.58   0
  -2  -7 -16  122.25   42.49   0
   0  -3  -2  622.90   40.14   0
   1  -9  -9  574.01   38.03   0
   1  -8  -7  811.33   38.90   0
   2  -9  -8 1319.48   47.37   0
   4  -7  -4  416.07   43.09   0
   5  -7  -4  711.61   51.09   0
  -1  -9 -15   44.29   32.20   0
  -1  -9 -14  584.26   39.62   0
   0 -10 -14  261.39   34.29   0
   0   3   1 2010.45   66.43   0
   1  -6  -4 1935.36   53.93   0
   2 -10 -10  615.63   39.38   0
   2   3   3 1366.19   60.12   0
  -3  -5 -13   77.92   38.77   0
  -2  -4  -6 1707.71   52.98   0
   0  -9 -10  765.15   39.81   0
   1 -10 -11  641.12   42.04   0
   2  -8  -6  495.98   36.64   0
   4  -9  -7   25.40   37.17   0
  -3  -5 -12  891.13   49.05   0
  -2  -3  -5 3857.95   82.64   0
   0 -10 -13   48.02   25.74   0
   4 -10  -9   91.35   38.85   0
   5  -9  -7  313.32   43.35   0
   6  -7  -4  254.14   49.16   0
  -3  -5 -11   20.77   32.36   0
  -3  -3  -8 1269.00   53.86   0
  -2  -5  -7  324.16   27.46   0
  -1  -9 -12  898.09   40.69   0
  -1  -5  -5 3489.67   68.85   0
  -1  -4  -4 1014.88   42.24   0
   0  -7  -6   82.48   25.14   0
   2  -5  -2  776.28   44.40   0
  -3  -4  -9   43.84   28.94   0
  -2  -8 -15   50.08   31.62   0
   0 -10 -12  574.80   35.53   0
   1  -9  -8   18.10   31.37   0
   2  -6  -3 5037.59   85.59   0
   4  -8  -5   24.63   36.01   0
   5  -8  -5  774.67   54.35   0
   6  -9  -7   -1.50   43.84   0
  -3  -2  -7 1699.23   66.24   0
  -2  -8 -16  349.55   41.02   0
   0  -9  -9  348.46   34.99   0
   1 -10 -10   78.17   31.70   0
   1   3   2   35.23   20.92   0
   2 -10  -9  268.77   33.96   0
  -2  -8 -12  113.92   30.53   0
  -1  -3  -3  316.52   31.99   0
   2  -9  -7   69.24   30.18   0
   3  -8  -5 1030.61   48.02   0
  -3  -6 -14  473.15   46.60   0
  -3  -6 -13  236.37   39.76   0
  -3  -5 -10 1311.94   47.68   0
  -1 -10 -15  116.33   32.39   0
  -1  -7  -7   27.92   23.93   0
   0 -10 -11   34.85   30.06   0
   1  -8  -6  185.85   28.81   0
   2 -11 -11  270.63   37.79   0
   2  -7  -4  910.73   42.01   0
   4 -10  -8  268.25   42.59   0
   6  -8  -5  109.58   48.47   0
  -3  -6 -12  348.82   40.27   0
   5 -10  -8   95.83   38.56   0
   5  -5  -1  233.66   45.39   0
  -2  -2  -4 2242.98   73.94   0
   0  -2  -1 2892.13   90.74   0
   1 -10  -9  647.60   40.57   0
   4  -9  -6  868.73   50.04   0
   5  -9  -6   95.30   42.26   0
  -3  -6 -11 1069.24   47.59   0
  -2  -9 -15  473.17   36.36   0
  -2  -9 -14   18.00   32.44   0
  -1  -9 -10  660.46   38.04   0
  -1   2  -1   44.83   28.18   0
   0 -11 -13  250.63   31.38   0
   2  -8  -5  415.82   33.31   0
   3  -9  -6  234.06   40.34   0
  -3  -4  -8 1578.21   53.72   0
  -2  -9 -16  102.43   33.61   0
   0 -10 -10  615.08   40.70   0
   1 -11 -11  209.82   34.01   0
   1  -9  -7 1070.90   45.86   0
   2 -10  -8  342.32   35.29   0
   6  -5  -1  638.65   56.28   0
  -3  -7 -14   58.70   39.10   0
  -3  -5  -9 1221.08   46.57   0
  -1 -10 -12    1.96   25.38   0
   4  -7  -3  338.35   39.06   0
   5  -7  -3  539.61   53.17   0
   6  -9  -6  377.57   53.33   0
   6  -6  -2   10.75   44.47   0
  -3  -7 -15  359.64   46.26   0
  -3  -7 -13  539.32   41.84   0
  -3  -3  -7  913.58   47.77   0
  -2  -6  -7 1404.23   43.19   0
   0 -11 -12  244.62   32.62   0
   0  -6  -4   16.35   20.95   0
   4 -11  -9  323.76   41.88   0
  -3  -7 -12   84.62   31.64   0
  -3  -6 -10   20.82   27.30   0
   0  -5  -3  854.30   38.84   0
   1  -6  -3   30.36   22.07   0
   2  -9  -6  671.42   39.38   0
   3  -7  -3 1257.21   53.65   0
   4 -10  -7  387.26   46.79   0
  -2  -7  -8   61.27   23.16   0
  -1 -10 -11  927.92   39.84   0
   1 -11 -10  604.93   40.98   0
   1 -10  -8  881.93   43.92   0
   1  -7  -4 2301.33   57.20   0
   3 -10  -7  236.40   39.04   0
   4  -8  -4 1232.17   55.11   0
   5 -10  -7   86.24   38.04   0
   5  -8  -4   11.78   45.49   0
  -1  -6  -5  884.52   36.37   0
   0 -11 -11  515.09   38.90   0
   0 -10  -9  404.03   38.88   0
   0  -8  -6 2510.18   55.72   0
   1  -8  -5 2739.42   60.52   0
   2 -11  -9  925.40   43.40   0
   3  -8  -4  150.12   39.20   0
  -3  -7 -11 1510.59   49.07   0
  -3  -1  -6  241.75   46.69   0
  -2 -10 -15  365.98   35.07   0
  -2 -10 -14  365.94   37.22   0
  -2   3  -4 1222.78   63.28   0
  -1  -5  -4  315.61   28.23   0
  -3  -8 -15  405.51   44.75   0
  -2  -8  -9 1727.99   46.50   0
   0  -9  -7  330.50   33.02   0
   0  -4  -2 1232.81   47.86   0
   4  -9  -5  396.08   44.60   0
  -3  -8 -13  287.97   35.85   0
  -3  -5  -8  591.38   35.67   0
  -2 -10 -13  192.95   33.05   0
  -1 -10 -10  175.85   33.19   0
  -1  -2  -2 3600.02   94.56   0
   1  -9  -6  291.08   33.70   0
   3  -9  -5  893.18   49.89   0
   4 -11  -8   26.51   38.67   0
   5  -9  -5  338.23   47.33   0
  -1 -11 -12  378.18   32.12   0
   0 -11 -10    2.92   34.80   0
   1 -11  -9   15.33   31.55   0
   6   1   3   38.35   56.33   0
  -3  -7 -10  660.16   37.65   0
  -3  -4  -7  701.05   39.09   0
  -1  -9  -8    1.87   27.69   0
   1 -12 -11  128.41   34.03   0
   4  -3   1   27.46   42.17   0
  -3  -2  -6  420.20   41.95   0
  -2  -3  -4 1065.04   47.53   0
  -1  -4  -3 5830.44   92.58   0
   0 -12 -12  -14.72   32.64   0
   0 -10  -8  772.74   41.20   0
   1 -10  -7   86.55   30.68   0
   2 -12 -10  107.63   36.32   0
   4 -10  -6   36.76   40.43   0
  -3  -9 -15   23.47   33.63   0
  -3  -9 -14  474.60   39.75   0
  -3  -8 -11    0.51   29.35   0
  -2  -6  -6 1212.01   41.16   0
  -1 -11 -11  178.29   32.70   0
   3 -10  -6  706.74   46.00   0
   5 -10  -6  380.88   50.15   0
  -3  -9 -16  345.94   43.43   0
  -2 -11 -14  341.41   35.92   0
  -2  -8  -8  715.55   34.35   0
  -1 -10  -9  736.02   40.26   0
  -3  -9 -13   29.63   32.37   0
  -2 -10 -11   40.04   28.87   0
   0 -12 -11  628.21   41.61   0
   0  -8  -5   46.09   25.09   0
   0  -7  -4 2214.74   54.70   0
  -3  -7  -9  379.04   32.36   0
  -2  -9  -9  194.14   28.78   0
   0 -11  -9  994.72   45.68   0
   4 -11  -7  229.42   42.11   0
  -3  -9 -12  379.67   35.30   0
  -1  -8  -6  282.85   27.79   0
   0  -9  -6 1044.69   42.67   0
   0  -6  -3 1345.49   45.84   0
   1  -8  -4   26.55   28.17   0
   3 -11  -7  153.23   39.94   0
   4  -8  -3  125.25   42.22   0
   4  -7  -2 1213.63   59.13   0
  -4  -5 -12    5.86   37.69   0
  -3 -10 -15  227.13   34.95   0
  -1 -12 -12  527.57   37.36   0
  -1 -11 -10 1186.93   45.24   0
  -1  -6  -4 2998.71   61.53   0
   0   3   0 3972.81   89.32   0
   1  -9  -5  160.08   33.01   0
   5 -11  -7   92.30   43.59   0
   5  -8  -3  777.88   55.82   0
  -4  -4 -11  867.32   53.67   0
  -3 -10 -14  296.37   34.94   0
  -2 -10 -10  716.18   37.18   0
   0  -3  -1 1928.46   63.83   0
   3  -8  -3  443.85   41.81   0
   4  -9  -4  278.74   45.41   0
   5  -6  -1  248.28   45.31   0
  -3  -9 -11  550.29   37.85   0
  -1 -10  -8  699.43   40.17   0
   0 -12 -10  257.06   37.51   0
   3  -9  -4  727.79   47.49   0
   3  -7  -2   55.67   33.66   0
   5  -9  -4  315.71   50.29   0
  -4  -6 -12  431.14   42.59   0
  -4  -5 -11  801.05   46.29   0
  -3 -10 -13  566.26   39.95   0
  -2  -8  -7  692.10   34.21   0
  -2   2  -4 2316.18   88.82   0
   2   2   2  899.59   53.63   0
   3 -12  -8   11.46   37.45   0
  -2  -7  -6  129.23   24.01   0
  -1 -12 -11  157.60   31.27   0
   0 -11  -8   26.63   31.53   0
   2   3   2 3718.13   85.09   0
   3 -10  -5    2.60   38.70   0
   3  -6  -1  215.47   39.37   0
   4 -10  -5  527.59   47.46   0
  -4  -7 -13   32.53   38.44   0
  -4  -6 -11  175.07   36.37   0
  -4  -4 -10  174.83   36.67   0
  -4  -3 -10 1221.01   65.13   0
  -3 -10 -12   52.33   31.01   0
  -2 -11 -11  780.73   36.66   0
  -1 -11  -9    8.51   31.96   0
  -1  -5  -3 3328.07   67.23   0
  -1  -3  -2   63.14   20.50   0
   1 -11  -7  293.98   34.98   0
   5 -10  -5  -13.44   45.39   0
  -4  -7 -12 1023.42   48.31   0
  -4  -5 -10  179.25   34.91   0
   0   2   0 2288.19   80.63   0
   2  -9  -4  160.71   35.93   0
   2  -8  -3  541.03   38.38   0
   4  -5   0   11.34   39.22   0
  -4  -8 -14  244.06   42.80   0
  -3 -11 -14   39.69   30.52   0
  -2  -1  -3   41.61   32.85   0
   0 -12  -9  378.54   37.43   0
   1   3   1 1291.93   50.70   0
   2 -10  -5  941.65   48.40   0
   3 -11  -6  303.81   45.22   0
   4 -11  -6   79.99   40.58   0
   5   2   3   11.49   36.58   0
  -4  -8 -13  385.79   42.01   0
  -1  -9  -6  471.07   32.68   0
   0  -9  -5 1245.80   44.41   0
   1 -12  -8  160.69   36.12   0
   5 -11  -6  140.08   48.20   0
  -4  -7 -11  204.30   35.50   0
  -4  -6 -10  818.41   44.63   0
  -3 -11 -13  355.90   36.24   0
  -2 -12 -12   87.86   30.30   0
  -2 -11 -10   31.89   26.67   0
  -1 -12 -10  388.78   37.36   0
  -1 -10  -7    2.97   30.49   0
  -1  -8  -5 1424.87   42.61   0
   0 -10  -6   24.16   31.78   0
   0  -8  -4 2426.83   57.23   0
   1  -5  -1   20.24   24.79   0
   2 -11  -6  405.90   42.66   0
  -4  -8 -12  113.23   36.60   0
  -4  -9 -14   11.08   37.42   0
  -4  -4  -9 1399.32   56.02   0
  -1 -11  -8  764.24   43.74   0
  -1  -7  -4 1410.14   42.50   0
   0 -13 -10  547.58   39.70   0
   0 -11  -7  684.45   41.44   0
   0  -7  -3  317.45   29.07   0
   1  -9  -4 1273.38   47.90   0
   1   2   1   42.59   20.28   0
  -4  -5  -9  665.71   41.97   0
  -3 -11 -12  321.48   33.78   0
  -2 -12 -11  436.99   32.35   0
  -2 -10  -8  172.52   30.56   0
  -2  -9  -7  116.32   25.81   0
  -2  -8  -6 1377.93   42.55   0
  -2  -5  -4 2803.32   59.97   0
  -2  -2  -3 6187.17  118.52   0
  -1 -13 -11  273.06   35.06   0
   1 -13  -9  371.74   40.50   0
   2 -12  -7   16.71   38.50   0
  -4  -8 -11 1043.47   45.11   0
  -4  -7 -10  718.32   40.31   0
  -3  -7  -7   20.77   20.24   0
  -2 -11  -9  650.95   37.26   0
  -1 -12  -9  495.25   40.07   0
   4 -10  -4   19.49   46.22   0
   4  -9  -3  913.48   58.87   0
   4  -8  -2  682.60   55.13   0
  -4 -10 -15  197.84   41.25   0
  -4 -10 -14  268.95   37.57   0
  -4  -9 -12  262.79   34.76   0
  -4  -6  -9  265.38   30.71   0
  -3 -12 -13   12.58   30.63   0
  -1  -6  -3  389.16   29.45   0
   0  -4  -1  181.32   24.75   0
   1  -7  -2   78.83   26.44   0
   3 -10  -4  573.89   47.79   0
   3  -9  -3  111.82   39.34   0
  -3  -2  -5 1267.24   60.15   0
   0  -6  -2  637.04   34.55   0
   3 -11  -5  343.31   45.46   0
   3  -8  -2  217.31   39.37   0
   4 -11  -5  148.40   48.37   0
  -4 -10 -13   48.88   30.76   0
  -2 -12 -10  419.12   34.10   0
  -2  -3  -3 1381.54   50.60   0
  -1 -13 -10   42.92   33.66   0
  -1 -10  -6 1396.64   48.19   0
   0 -13  -9   29.92   33.60   0
  -4  -9 -11  464.80   35.92   0
  -4  -8 -10   37.77   26.92   0
  -3 -10  -9  704.05   36.34   0
  -3  -9  -8   18.05   23.77   0
  -1 -11  -7  367.33   35.83   0
  -1  -9  -5 1115.30   41.71   0
   0 -10  -5  947.49   42.66   0
   2 -11  -5  246.22   41.67   0
   2 -10  -4  102.71   36.62   0
   2  -9  -3 1104.09   52.32   0
  -4  -7  -9 1233.12   44.88   0
  -4  -4  -8   35.86   31.05   0
  -4  -2  -9  300.00   60.98   0
  -2  -6  -4  497.15   29.61   0
   0 -11  -6  415.32   37.54   0
   0  -9  -4  475.78   34.08   0
   3 -12  -6    2.44   38.62   0
   4 -12  -6  350.45   48.49   0
  -4 -11 -14  254.26   33.77   0
  -4  -5  -8 2185.52   57.88   0
  -3 -11 -10  530.71   35.30   0
  -2 -13 -11   16.72   31.21   0
  -2 -11  -8  393.63   34.78   0
  -2 -10  -7  857.36   38.37   0
  -2  -9  -6  816.09   36.07   0
  -1 -12  -8  104.05   34.48   0
  -1  -8  -4  164.31   26.38   0
   0 -12  -7   74.74   30.75   0
   2 -12  -6  441.93   46.09   0
  -4  -3  -8 1352.11   61.42   0
   0  -8  -3   66.50   24.61   0
  -4 -11 -13  122.25   32.88   0
  -4  -9 -10  836.51   40.29   0
  -4  -6  -8 1068.52   42.85   0
  -3  -7  -6 2133.37   49.02   0
  -2 -12  -9   36.28   31.68   0
  -2  -8  -5   45.88   22.61   0
  -2  -4  -3  426.23   28.86   0
  -1 -13  -9  527.36   40.23   0
  -4 -10 -11   67.27   30.18   0
   0 -13  -8  413.87   35.72   0
   2 -13  -7  358.20   41.20   0
  -2 -13 -10  508.43   38.11   0
   2  -7  -1   27.90   32.65   0
   4  -6   0  719.61   52.50   0
  -4 -11 -12  341.53   35.86   0
  -4  -7  -8   64.49   25.23   0
  -3 -11  -9   17.58   25.27   0
  -3  -9  -7 1429.80   43.01   0
   0   3  -1  190.93   26.02   0
   3  -4   1 1079.93   59.42   0
   5  -6   0  283.05   51.82   0
  -3 -12 -10  249.83   30.82   0
  -2  -7  -4 1030.52   37.96   0
  -2   2  -5   99.01   35.47   0
  -1 -11  -6  269.42   34.89   0
  -1 -10  -5   33.91   28.89   0
   0  -7  -2 2069.70   52.90   0
  -4 -12 -13  451.48   36.41   0
  -4 -10 -10  865.78   40.60   0
  -4  -9  -9   43.13   29.00   0
  -3  -8  -6   70.28   23.42   0
  -2 -10  -6   16.06   26.91   0
  -1 -12  -7 1038.42   44.93   0
   3 -11  -4   35.22   39.41   0
   3 -10  -3  159.40   46.16   0
   4 -10  -3  411.54   53.64   0
  -4 -11 -11  696.63   40.35   0
  -2 -12  -8  510.51   40.42   0
  -2  -5  -3 2265.19   53.46   0
  -1 -13  -8  214.47   33.61   0
  -1  -9  -4  831.03   37.83   0
   0 -12  -6  614.28   38.86   0
   0 -11  -5   91.25   30.58   0
   0 -10  -4  332.36   33.91   0
   3 -12  -5  322.12   43.23   0
   4 -11  -4  309.66   48.39   0
  -4  -8  -8  659.95   36.11   0
  -4  -5  -7   25.61   23.28   0
  -4  -4  -7 2099.00   62.38   0
  -2  -9  -5  574.44   32.83   0
   2 -11  -4  975.38   53.81   0
   3  -9  -2  766.44   49.98   0
   4  -9  -2   22.53   45.01   0
  -4 -12 -12   31.82   30.93   0
  -4  -6  -7  763.16   38.16   0
  -2 -13  -9   66.96   32.22   0
   0 -13  -7  329.70   38.35   0
   0  -9  -3  780.95   39.68   0
   0  -2   0 2415.86   79.70   0
  -5  -9 -13  190.09   41.91   0
  -5  -8 -12  676.18   49.00   0
  -3 -10  -7   36.28   26.89   0
   2 -13  -6   48.18   40.60   0
   2  -9  -2   -6.58   37.39   0
  -4  -2  -8 2032.68  101.94   0
  -3 -12  -9  466.69   32.56   0
  -3  -7  -5  464.17   28.38   0
  -1  -8  -3 1257.72   42.68   0
  -1  -2  -1   43.04   19.98   0
   1 -12  -5  552.22   46.88   0
   1 -11  -4   82.60   37.57   0
  -5  -9 -12  546.89   43.80   0
  -5  -7 -11  431.98   41.57   0
  -4 -12 -11  505.74   37.81   0
  -3 -13 -10   16.35   26.45   0
  -2  -8  -4 1326.21   39.85   0
  -2  -6  -3 3781.61   65.74   0
   0  -6  -1  482.51   32.26   0
   1 -13  -6  503.42   46.39   0
   1 -10  -3  873.73   48.65   0
   3  -8  -1  531.16   47.78   0
  -5 -10 -13  526.40   44.79   0
  -5  -8 -11   17.31   33.72   0
  -5  -6 -11  619.91   48.63   0
  -4  -3  -7 1183.41   56.88   0
  -1 -12  -6  211.37   33.97   0
  -1  -3  -1 1246.51   48.19   0
  -5 -11 -14   68.24   39.40   0
  -3  -4  -4   98.21   22.52   0
  -2 -13  -8  295.46   37.42   0
  -2 -12  -7   60.68   33.53   0
  -2 -11  -6  874.79   43.79   0
  -1 -13  -7  206.10   34.46   0
  -1 -11  -5  925.42   43.27   0
   0  -3   0 3695.08   83.75   0
  -5 -10 -12   12.95   31.39   0
  -5  -9 -11  498.89   41.99   0
  -2 -10  -5 1281.37   44.35   0
  -1 -10  -4  473.97   36.33   0
  -1  -1  -1 4893.76  135.15   0
   2  -8  -1  484.23   40.58   0
  -5 -11 -13  262.67   36.67   0
  -5  -7 -10  520.72   41.69   0
  -3 -12  -8   10.25   27.67   0
  -3  -8  -5 1706.89   45.05   0
  -3  -5  -4  321.87   24.80   0
   4  -5   1 1463.72   69.54   0
  -5  -8 -10  739.88   43.62   0
  -5  -6 -10   14.38   31.75   0
  -3 -13  -9  489.93   34.49   0
  -3 -11  -7  651.34   36.72   0
  -2  -7  -3   20.11   19.40   0
  -2   2  -6 3309.88   90.71   0
  -1  -7  -2   17.82   21.11   0
  -5 -11 -12  412.48   36.71   0
  -5 -10 -11  742.22   41.23   0
  -2  -9  -4  304.63   29.04   0
  -1  -9  -3  161.44   27.40   0
   2 -12  -4  231.25   42.98   0
   3 -12  -4  284.38   47.13   0
   3 -11  -3  507.77   51.43   0
   4  -7   0  823.97   54.31   0
   5  -5   1   26.54   46.86   0
  -5  -9 -10  163.45   34.14   0
   2 -11  -3   -1.38   39.95   0
   3  -5   1  200.73   37.92   0
  -5 -12 -13  -14.22   31.84   0
  -4  -4  -6  397.73   33.16   0
   0  -7  -1   52.38   23.56   0
   1  -8  -1  226.23   33.05   0
   3 -10  -2  204.87   48.61   0
  -5  -7  -9  167.77   34.87   0
  -5  -5 -10  407.13   46.01   0
  -3  -9  -5  243.50   26.49   0
  -2 -13  -7  485.81   39.68   0
  -2 -12  -6 1075.89   46.91   0
  -2  -4  -2 3800.55   71.41   0
  -2  -3  -2 3671.72   76.30   0
   0   2  -1 2139.24   71.01   0
   1 -13  -5   13.79   38.76   0
   1 -12  -4  300.71   41.43   0
   2 -10  -2  411.52   42.16   0
  -5 -12 -12  359.91   35.49   0
  -5 -11 -11   88.02   31.26   0
  -5 -10 -10  375.34   36.24   0
  -5  -8  -9  115.02   30.77   0
  -5  -6  -9  766.39   43.93   0
  -4 -11  -8   27.92   25.45   0
  -3  -7  -4  594.47   30.95   0
  -2 -11  -5  311.50   35.46   0
  -1 -14  -7  129.60   33.82   0
  -1 -13  -6  478.19   36.43   0
   1 -11  -3 1123.74   52.04   0
  -3 -12  -7  979.20   44.63   0
  -2  -8  -3 1067.47   38.86   0
  -2  -5  -2  893.31   36.40   0
  -1 -11  -4   12.60   29.14   0
   3  -9  -1   58.90   43.84   0
   5   1   2  681.49   49.69   0
  -5  -9  -9 1050.11   42.83   0
  -4 -10  -7 1362.37   42.93   0
  -4  -8  -6 2129.34   48.32   0
  -3 -11  -6  357.77   33.63   0
  -1  -8  -2  573.31   33.47   0
  -5 -12 -11  217.85   34.80   0
  -2 -10  -4  193.21   30.83   0
  -2  -2  -2  954.77   46.97   0
   0  -5   0   31.69   21.61   0
   1 -10  -2  292.13   40.58   0
   2  -9  -1  902.88   51.50   0
   5   0   2  214.34   46.34   0
  -5 -11 -10  717.56   39.30   0
  -5  -5  -9  331.83   38.52   0
  -3 -10  -5  140.52   28.69   0
  -3  -8  -4  285.35   26.14   0
  -1 -10  -3  542.96   36.57   0
  -5 -10  -9  256.26   33.19   0
  -4 -13  -9  142.61   31.57   0
  -4  -9  -6  651.48   33.76   0
  -2  -6  -2  910.47   35.52   0
  -1  -6  -1 1264.17   42.04   0
   1   2   0 5752.35  108.29   0
  -4 -11  -7  442.09   32.91   0
  -2 -14  -7  339.06   37.18   0
  -2 -13  -6   45.93   31.41   0
  -5  -6  -8  519.25   37.83   0
  -4  -2  -7   14.16   45.76   0
  -3 -13  -7  196.45   33.46   0
  -2 -12  -5  432.65   37.89   0
  -2  -9  -3 2118.37   50.95   0
   1  -9  -1  170.79   37.13   0
   1  -7   0  214.24   31.01   0
   2 -13  -4  -10.83   41.55   0
   2 -12  -3  309.75   44.25   0
  -5 -12 -10  145.79   33.24   0
  -5 -11  -9   55.67   30.40   0
  -5  -9  -8   75.32   29.04   0
  -3 -12  -6   85.03   33.51   0
  -3  -5  -3  620.75   30.72   0
  -1 -14  -6  299.18   40.42   0
  -1 -13  -5   22.73   33.50   0
  -1  -9  -2 1117.52   43.08   0
   1 -13  -4  500.29   46.93   0
   3  -6   1 1672.73   65.55   0
   4  -6   1  116.59   44.14   0
  -4 -10  -6   38.82   24.62   0
  -3  -9  -4 1327.96   40.36   0
  -3  -6  -3  109.56   20.26   0
  -3  -4  -3 3210.22   64.61   0
  -2  -7  -2 2432.67   52.71   0
  -1 -12  -4  302.73   33.61   0
   1 -12  -3   81.14   43.13   0
   2 -11  -2  483.75   50.37   0
   3 -11  -2  117.84   48.44   0
   4  -8   0  112.34   47.42   0
  -5 -10  -8  644.49   38.25   0
  -4  -8  -5    4.38   20.46   0
  -3 -11  -5 1072.33   45.34   0
   2  -8   0  166.83   36.61   0
  -5  -5  -8  293.54   35.80   0
  -4 -13  -8  463.70   32.73   0
  -4 -12  -7    9.77   27.71   0
  -4  -4  -5  352.05   31.80   0
  -1 -11  -3  730.67   40.28   0
  -6 -10 -12  393.35   43.97   0
  -5 -13 -10  116.19   31.97   0
  -5  -7  -7   -0.61   25.85   0
  -3  -7  -3  821.27   33.16   0
   0 -13  -4   13.06   39.25   0
   1 -11  -2   96.08   40.01   0
   3 -10  -1  472.81   55.38   0
  -6 -11 -12  116.23   40.60   0
  -5  -8  -7  616.79   36.33   0
  -4 -11  -6  546.33   36.41   0
  -3  -3  -3 3161.10   71.48   0
  -2 -14  -6  170.94   35.85   0
  -2 -10  -3  324.55   33.23   0
  -2  -8  -2  668.78   33.74   0
   0 -12  -3  574.39   43.96   0
   2 -10  -1   96.86   40.69   0
  -6  -9 -11  186.73   41.93   0
  -5  -9  -7 1007.87   42.54   0
  -5  -4  -9  171.24   43.43   0
  -3 -13  -6  649.07   41.74   0
   3   2   1   10.43   20.15   0
  -6 -12 -12   28.01   36.48   0
  -6 -10 -11   53.71   37.31   0
  -3  -8  -3 1464.20   42.20   0
  -1 -10  -2   63.17   29.33   0
  -1  -8  -1  706.75   34.67   0
   1  -8   0 1903.46   57.68   0
   3  -3   2  366.79   47.89   0
  -6 -11 -11  414.30   36.90   0
  -3 -12  -5  440.02   38.07   0
  -2 -12  -4  310.06   35.11   0
   0 -11  -2  389.52   40.82   0
   1 -10  -1  534.34   44.95   0
  -4 -13  -7  542.15   35.64   0
  -1   2  -4  155.63   29.23   0
   2 -13  -3  425.91   50.63   0
  -6 -12 -11  169.08   33.47   0
  -6  -9 -10  592.42   42.23   0
  -4  -6  -4    7.82   17.93   0
  -3 -11  -4   11.25   31.18   0
  -2  -9  -2  107.44   25.48   0
  -2  -5  -1 1575.99   44.75   0
   1 -13  -3   55.76   42.00   0
  -6 -11 -10  -10.70   30.42   0
  -6  -8 -10   87.66   36.96   0
  -3  -9  -3   21.58   21.43   0
  -2 -11  -3  181.16   32.88   0
  -1  -3   0   31.03   17.16   0
   1  -6   1 2212.07   59.24   0
   2 -12  -2   30.27   46.48   0
  -5  -7  -6 1364.79   43.30   0
  -5  -4  -8 1734.25   68.20   0
  -3 -14  -6  242.82   36.84   0
  -2  -6  -1 1375.36   40.29   0
   0 -10  -1   37.12   36.44   0
   4  -7   1  124.37   45.96   0
  -4 -11  -5    6.86   27.95   0
  -3 -13  -5   -1.07   29.99   0
  -2  -1  -2 5024.64  130.86   0
  -1  -9  -1  406.17   32.50   0
   1 -12  -2  311.28   42.73   0
  -6 -12 -10  227.38   34.99   0
  -6  -9  -9   77.41   33.33   0
  -6  -7 -10  203.95   39.96   0
  -4  -9  -4  203.15   28.78   0
  -3  -6  -2  861.17   33.99   0
  -2 -13  -4   12.15   29.37   0
  -2  -7  -1   59.37   22.21   0
   1  -9   0  558.34   43.89   0
   2 -11  -1  235.63   48.79   0
  -5 -12  -7  654.98   36.40   0
  -4 -13  -6   26.80   28.86   0
  -3 -10  -3  796.53   39.24   0
  -3  -7  -2   10.64   20.35   0
  -2 -10  -2  822.53   40.28   0
  -2  -3  -1 1707.01   51.27   0
   0  -4   1 1450.30   48.94   0
   0   2  -2 2228.99   66.73   0
  -3 -12  -4  598.03   40.02   0
   0 -12  -2    1.02   38.27   0
   0  -3   1  204.76   25.98   0
   1 -11  -1  365.89   45.73   0
  -3  -4  -2  464.13   29.12   0
  -2 -12  -3  581.35   37.56   0
  -1  -7   0  118.33   23.10   0
   0  -5   1 2787.43   61.70   0
   1  -7   1 1245.95   48.59   0
  -6 -12  -9   26.94   32.61   0
  -5 -11  -6  161.58   28.82   0
  -3  -8  -2 1257.99   40.30   0
   2   2   0 1772.87   56.54   0
  -6 -10  -8   94.36   32.00   0
  -5 -13  -7   86.74   31.06   0
  -1  -2   0 5881.25  107.12   0
   0  -9   0  227.04   37.37   0
  -4  -7  -3  545.69   29.40   0
   0 -11  -1  202.75   37.73   0
   0  -2  -3 2091.34   65.81   0
   2  -4 -13   14.21   24.90   0
  -1   1  -6  158.94   29.29   0
   1  -3 -12  136.74   25.88   0
   2  -5 -12  115.57   30.86   0
   3  -6 -12  330.68   30.65   0
   4  -7  -7  741.67   45.63   0
   0  -3  -8 1663.34   44.44   0
   0  -3  -6  523.64   31.15   0
   0  -2 -10  347.90   26.58   0
   0   0 -11   14.24   27.72   0
   0   1 -11  857.73   46.33   0
   1  -4 -11  638.57   32.57   0
   1  -1 -13  685.06   39.04   0
   1   1 -13    7.70   30.59   0
   2  -6  -9   11.72   24.94   0
   3  -5 -14  157.42   30.20   0
   4  -6  -3  528.45   57.32   0
   1  -5  -8  888.22   36.82   0
   1  -2 -13   29.83   27.08   0
   1   1   3 2431.17   84.74   0
   2  -6 -10 1219.25   42.07   0
   2  -6  -7  529.58   33.94   0
   4  -7  -6   36.14   40.98   0
  -1   1  -7 1834.07   56.04   0
  -1   2  -7  592.96   40.93   0
   0  -3  -9  487.39   29.29   0
   0  -3  -5 3575.37   70.41   0
   0  -1 -11  846.12   39.32   0
   1  -5  -9  503.82   30.77   0
   1  -5  -7 2732.35   57.88   0
   1   2 -13  165.09   45.05   0
   3  -6 -13   46.43   27.46   0
  -1   4  -6 1232.50   66.04   0
   1  -5 -10 1098.62   40.87   0
   1  -4 -12  191.81   28.75   0
   1  -2   0 2433.16  142.29   0
   2  -6 -11  181.32   29.74   0
   2  -5 -13  539.64   34.56   0
   2  -4 -14  471.92   30.14   0
  -1   0  -5   92.80   26.04   0
  -1   3  -7   -2.14   32.64   0
   0  -3 -10 1417.47   41.25   0
   1  -5  -6  938.77   39.19   0
   3  -7 -11  673.47   36.11   0
   4  -7 -13   39.93   30.03   0
  -1   1  -3   65.57   29.98   0
   1  -5 -11   51.15   26.32   0
   2  -6 -12  423.64   34.07   0
   3  -7  -7   10.15   31.15   0
   6  -8 -10   14.79   41.41   0
   6  -8  -9  484.07   57.05   0
  -1   1  -8   51.59   26.66   0
   0   3   2  702.10   46.08   0
   1  -1 -14    7.87   32.87   0
   1   0 -14  197.77   33.85   0
   3  -7 -12   -5.25   24.72   0
   5  -8 -11   63.63   37.44   0
   5  -8  -9   23.99   39.53   0
  -1   0  -8 1122.08   43.83   0
  -1   2  -8 1128.79   52.59   0
   0  -1 -12  545.46   37.16   0
   0   0 -12  749.37   41.43   0
   0   1 -12   79.52   38.87   0
   1  -4 -13  589.21   32.97   0
   1  -4  -3 1954.92   65.27   0
   1  -2 -14  619.49   39.94   0
   1   0   2  381.88   50.75   0
   1   1 -14  224.41   45.15   0
   2  -5 -14  412.46   31.86   0
   6  -8  -8   59.64   52.02   0
  -1   0  -4 4864.20   99.36   0
   0  -4  -9 4210.81   66.68   0
   0  -4  -8   41.88   21.70   0
   0  -3 -11   -4.32   22.87   0
   0  -3  -4   17.62   19.87   0
   1  -5 -12 1077.50   41.00   0
   2  -6 -13  434.35   35.21   0
   3  -7 -13  364.07   30.42   0
   5  -8  -8  317.28   49.72   0
   0  -4  -7 2166.32   50.68   0
   0  -2 -12    3.68   27.51   0
   1  -5  -5 3029.29   66.77   0
   3  -7  -6 1661.56   61.12   0
   4  -8 -11  468.87   41.66   0
   4  -8 -10   14.85   33.76   0
   4  -8  -9  616.25   45.88   0
  -1  -1  -6 1939.08   53.63   0
  -1   3  -8  664.41   46.96   0
   0  -4 -10  393.33   29.12   0
   0   2 -12  165.23   45.09   0
   2  -7 -10  678.66   37.52   0
   2  -4  -1   31.60   40.55   0
   4  -8 -12   95.08   31.43   0
  -1   0  -9  574.03   36.70   0
  -1   1  -9 1605.37   52.38   0
   0  -4  -6 1232.60   43.17   0
   1  -6 -10   39.30   26.51   0
   1  -6  -9 1601.95   46.15   0
   1  -5 -13  155.03   28.52   0
   1  -4 -14   10.08   29.52   0
   2  -7 -11  116.12   28.97   0
   2  -7  -9 1329.54   46.02   0
   2  -6 -14   27.67   30.69   0
   5  -8  -7  323.14   53.47   0
  -1  -1  -5 5203.75   89.83   0
   0  -4 -11  656.37   34.29   0
   1  -6 -11  718.12   36.52   0
   1  -6  -8  120.39   25.39   0
   2  -7 -12  602.46   37.38   0
  -1  -1  -9   44.70   24.34   0
  -1   2  -9  148.77   35.98   0
   0  -1 -13  103.16   31.59   0
   3  -8 -10  699.40   43.29   0
   3  -6  -3   73.63   42.48   0
   0  -2  -2 1463.18   65.12   0
   0   1 -13  529.91   48.08   0
   1  -6 -12  268.25   33.95   0
   1  -6  -7 1997.81   52.04   0
   1  -3 -15   20.54   29.98   0
   3  -8  -9   60.38   35.85   0
   4  -8  -7  251.54   47.69   0
  -1  -2  -8  131.46   21.29   0
  -1  -2  -7 2417.05   54.93   0
  -1   0 -10  431.82   35.50   0
   0  -4 -12  651.48   34.31   0
   1  -5 -14  199.52   28.01   0
   2  -7 -13   -0.78   26.96   0
   3  -7  -5   15.47   37.12   0
   4  -7  -4  443.47   54.63   0
  -1  -1 -10 1762.11   50.41   0
  -1   1 -10  516.18   42.78   0
   0  -5 -10   52.25   23.26   0
   0  -5  -9 1978.95   48.63   0
   0  -4  -5 2953.89   65.81   0
   1  -6 -13  239.07   32.29   0
   3  -8 -13  253.83   35.34   0
  -1   3  -9  486.22   47.92   0
   0  -5 -11  856.70   38.37   0
   0  -5  -8 2064.55   49.29   0
   1  -5  -4  563.78   39.51   0
   2  -7 -14  317.53   35.30   0
   2  -6  -4  491.79   43.68   0
   3  -8  -8  771.14   45.98   0
   5  -9 -11   35.38   39.19   0
  -1   2 -10 1010.99   53.79   0
   0  -4 -13   -9.73   26.50   0
   0  -1 -14  367.95   39.58   0
   1  -6  -6 1170.94   44.97   0
   1   2   3 1344.82   58.68   0
   5  -9 -10  233.78   43.76   0
  -1  -1  -4 2686.05   71.50   0
   0  -5 -12   16.37   26.16   0
   0  -5  -7  121.01   24.08   0
   0  -3  -3 2406.21   69.94   0
   0  -2 -14  165.96   34.37   0
   0   0 -14  222.53   44.71   0
   1  -5 -15  353.37   35.29   0
   2  -7  -6   54.29   33.90   0
   4  -9 -12   76.03   36.31   0
   4  -9 -11  323.27   40.74   0
   5  -9  -9  439.92   56.49   0
  -1  -3  -9  978.22   37.89   0
  -1  -3  -8  514.93   31.11   0
  -1  -1 -11   93.87   30.46   0
  -1   0 -11  615.57   40.98   0
   1  -7 -11  863.99   40.67   0
   1  -7 -10  732.36   40.43   0
   2  -8 -12  324.16   31.55   0
   2  -8 -11  787.85   38.83   0
   4  -9 -10  262.25   42.98   0
  -1  -3 -10    6.34   22.93   0
  -1  -2 -11  143.42   32.53   0
  -1   1 -11  315.98   42.39   0
   1  -7 -12   31.97   28.44   0
   1  -7  -9  822.66   39.48   0
   2  -8 -13  136.25   29.51   0
  -1  -3  -7  331.53   27.16   0
  -1  -2  -5 5566.35   90.12   0
   1  -7 -13  880.49   42.88   0
   2  -5  -2  780.13   57.42   0
   4  -9  -9  116.32   43.34   0
   5  -9  -8   11.75   51.09   0
   0  -6 -10  587.20   34.52   0
   0  -5  -6 2968.83   63.51   0
   1  -7  -8 1479.43   47.50   0
   1  -6 -15   19.41   27.88   0
   2  -8 -14  348.93   34.99   0
  -1  -2 -12  767.01   41.04   0
  -1  -1 -12  278.80   34.71   0
   0  -6 -11  535.03   35.04   0
   0  -6  -9   63.20   24.17   0
   0  -2 -15  141.84   34.90   0
   0   2   1 2920.15  111.83   0
   1  -7 -14  141.10   31.43   0
   2  -8  -8  759.18   46.72   0
   3  -9 -10  285.19   42.22   0
  -1  -3  -6 1490.80   46.97   0
  -1   0 -12   33.76   38.76   0
  -1   2 -11   74.57   42.44   0
   0  -6 -12  248.26   30.83   0
   0  -5 -14  321.00   33.00   0
   0  -4  -4 4104.41   81.77   0
   0  -3 -15  315.26   35.16   0
   0  -1 -15   24.21   38.69   0
   1  -6  -5  735.61   41.70   0
   3  -1   3   70.13   45.77   0
  -1  -4 -10 1204.19   40.30   0
  -1  -4  -9  346.78   27.97   0
  -1  -3 -12  399.97   34.36   0
   0  -6  -8 1613.57   46.93   0
   0  -4 -15   57.98   32.21   0
   3  -8  -6  567.86   49.25   0
  -1  -4 -11  669.57   34.89   0
  -1  -4  -8 2955.33   58.59   0
  -1   1 -12  432.97   49.79   0
   1  -7  -7   71.37   26.55   0
   2  -7  -5 1484.43   58.67   0
   3  -9  -9  785.76   47.77   0
  -1  -2 -13   -5.42   32.42   0
   1  -8 -12  628.54   38.28   0
   1  -8 -11   36.57   28.60   0
  -1  -3 -13  370.48   35.24   0
   0  -6 -14   54.75   26.05   0
   1  -8 -13  477.30   35.54   0
   1  -8 -10  971.54   42.26   0
   2  -9 -13  497.13   38.24   0
   2  -8  -7  931.62   48.48   0
  -1  -4  -7  267.83   24.98   0
  -1   0 -13  379.18   48.00   0
   0  -6  -7  556.24   34.03   0
   0  -5  -5   24.27   22.28   0
   1  -8 -14  132.64   32.22   0
   3  -9  -8   29.69   41.16   0
   4 -10 -11   17.25   40.04   0
   4  -9  -7    6.40   50.97   0
  -1  -2  -4 2352.47   64.56   0
   0  -7 -12 1012.13   43.56   0
   0  -7 -10 1327.49   45.64   0
   1  -8  -9   60.00   28.76   0
   2  -9 -10  497.45   41.38   0
   3  -6  -2 2039.89   92.49   0
  -1  -5 -11  300.80   29.79   0
  -1  -5  -9  318.67   28.65   0
  -1  -3  -5  302.04   27.94   0
   0  -7 -13   25.21   30.45   0
   0  -6 -15  390.78   34.30   0
   0   3   1 2073.66   84.01   0
   4 -10 -10  480.42   49.28   0
  -1  -5 -12 1033.81   39.17   0
  -1  -3 -14  437.44   39.85   0
  -1  -2 -14  382.98   38.03   0
  -1  -1  -3 2693.11   78.54   0
   2  -9  -9  101.94   39.41   0
   3 -10 -12   10.18   35.61   0
  -1  -5  -8  925.36   37.74   0
  -1  -4  -6 2583.65   58.57   0
  -1  -1 -14   19.84   39.81   0
   3 -10 -11  407.20   45.35   0
  -1  -5 -13  302.53   30.82   0
  -1  -4 -14   28.37   30.39   0
   0  -6  -6  458.07   32.33   0
   2  -8  -6  526.78   47.06   0
   4 -10  -9   91.55   54.76   0
   0  -7 -15  148.67   30.78   0
   0  -7  -8  127.18   27.49   0
   1  -9 -13    9.50   27.76   0
   1  -9 -12  546.51   36.56   0
   3 -10 -10   15.69   41.84   0
   3  -9  -7 1336.81   64.00   0
  -1  -6 -12  670.20   36.72   0
  -1  -6 -11  769.11   37.45   0
  -1  -6 -10  299.81   29.28   0
   0  -8 -12  178.04   32.10   0
   1  -9 -14  498.35   37.39   0
   1  -9 -11  149.60   32.08   0
   1   1   2 3697.43  114.22   0
   2  -9  -8 1292.78   57.39   0
  -2  -1  -9 2393.76   58.16   0
  -2  -1  -8  362.01   32.92   0
  -2   0  -9  520.02   39.06   0
  -2   0  -8  627.85   39.03   0
  -1  -6 -13  172.88   27.06   0
  -1  -4 -15  470.94   39.74   0
  -1  -3 -15   33.31   32.64   0
  -1  -2 -15  213.86   38.55   0
   0  -8 -13  404.38   38.53   0
   0  -4  -3  804.23   44.65   0
   2 -10 -12  644.03   43.10   0
  -2  -2 -10  557.80   35.70   0
  -2  -1 -10  115.35   31.18   0
  -2   0  -7 2019.43   59.78   0
  -1  -6  -9 1935.99   48.84   0
   0  -8 -14  438.30   36.54   0
   0  -8 -10   20.25   29.26   0
   0  -3  -2  612.00   44.70   0
   2 -10 -11   10.18   38.56   0
  -2   0 -10  917.86   48.80   0
  -2   1  -8 1666.63   60.89   0
  -1  -6 -14  849.18   38.62   0
  -1  -5 -15  320.52   36.52   0
   0  -8 -15   84.38   30.53   0
   3 -10  -9  605.96   51.69   0
  -2  -2 -11  737.36   40.52   0
  -2  -1 -11  597.02   42.24   0
  -2   1  -9   58.30   34.94   0
  -2   1  -7   52.63   31.36   0
   0  -7  -7 1871.12   52.46   0
   2   1   3   33.86   28.80   0
   4 -10  -8  218.09   56.97   0
  -2  -3 -11  265.61   33.65   0
  -1  -7 -12   12.82   27.33   0
  -1  -6  -8  451.82   31.20   0
  -1  -4  -5 2136.35   56.61   0
  -1  -3  -4 3633.09   76.50   0
   0  -8  -9 1256.89   45.86   0
   2 -10 -10  643.04   46.87   0
   4 -11 -11  137.97   49.67   0
  -2  -3 -12  687.04   39.47   0
  -2  -2 -12   91.65   31.13   0
  -2  -2  -7  234.07   26.99   0
  -2   0 -11   24.25   35.76   0
  -2   0  -6   18.78   25.64   0
  -1  -7 -11  493.58   35.34   0
   2  -9  -7   55.52   43.13   0
   3 -11 -12  179.66   42.20   0
  -2  -4 -10  265.82   26.36   0
  -2  -3  -8  785.42   34.47   0
  -2  -1 -12  207.17   39.56   0
  -2   1 -10  718.94   47.01   0
  -2   1  -6 2297.18   69.98   0
  -1  -7 -14   67.22   27.10   0
  -1  -7 -10  509.84   35.01   0
  -2  -4  -9  655.52   33.36   0
  -2   2  -8  799.92   50.80   0
   0  -9 -14   50.47   31.38   0
   0  -9 -12  149.08   31.58   0
   2  -8  -5  367.88   45.65   0
   3 -11 -11  139.38   42.63   0
   3 -10  -8  694.45   62.43   0
  -2  -3 -13  355.65   38.27   0
  -2  -2 -13  591.81   44.86   0
  -2   2  -7  302.94   42.67   0
  -1  -7 -15  237.80   30.86   0
  -1  -2  -3 1207.52   52.25   0
   0  -9 -11  372.80   34.99   0
   0  -8  -8  244.85   30.53   0
   1  -9  -8  -12.59   36.88   0
   2 -10  -9  265.84   44.04   0
  -2  -5 -11 1178.03   42.01   0
  -2  -4 -13   25.82   29.14   0
  -2  -3  -7 1185.84   41.33   0
  -2   0 -12  595.20   48.77   0
  -2   1 -11  277.78   45.72   0
  -2   2  -9 1023.47   57.38   0
  -1  -7  -9  383.32   30.85   0
  -1  -6  -7  318.39   29.41   0
   1  -8  -6  170.40   33.93   0
  -2  -4  -8   -4.44   20.80   0
  -2  -2  -6 3088.96   65.28   0
  -2  -1 -13  256.64   44.28   0
  -1  -8 -13  410.32   37.60   0
  -1  -8 -12 1007.76   44.37   0
   0  -9 -10  737.99   39.47   0
   0  -7  -6   60.34   24.63   0
   3  -8  -4  156.89   49.49   0
  -2  -4 -14  555.21   41.18   0
  -2   2  -6 3484.42   93.90   0
  -1  -8 -14  146.07   29.60   0
  -1  -8 -11   18.97   28.12   0
   0   5   0   37.04   30.19   0
   1 -10 -10   31.90   37.22   0
   3 -11 -10  362.89   46.49   0
  -2  -5  -9 1045.34   38.82   0
  -2  -2 -14   74.73   39.50   0
  -1  -8 -15  263.95   33.69   0
   2 -11 -11  245.21   46.11   0
  -2  -6 -12  908.23   37.50   0
  -2  -5 -14  262.15   34.26   0
  -1  -8 -10 1335.66   46.14   0
  -1  -7  -8 2118.89   52.42   0
   0 -10 -14  220.87   35.36   0
   0 -10 -13   68.05   27.76   0
   2 -10  -8  318.14   49.47   0
  -2  -6 -13  422.12   34.27   0
  -2  -6 -11  139.34   28.66   0
  -2  -4 -15   14.61   32.42   0
   0 -10 -12  549.09   37.98   0
   0  -9  -9  316.13   34.67   0
   0  -8  -7  503.76   37.42   0
   2  -9  -6  686.58   53.55   0
   2  -6  -2  116.87   45.82   0
   2  -5  -1 2375.51  105.38   0
   3 -10  -7  210.93   55.50   0
  -2  -5 -15  168.06   34.13   0
  -2  -4  -7 1935.05   49.51   0
  -2  -3 -15  454.98   40.78   0
  -2  -3  -6  253.13   27.12   0
  -2  -1  -5  928.70   44.01   0
   1 -10  -9  670.72   48.58   0
   1  -9  -7 1016.30   52.16   0
   2 -11 -10   43.09   44.29   0
  -2  -5  -8 1413.49   43.43   0
  -2  -2 -15  366.17   48.85   0
  -1  -9 -13   33.00   32.87   0
  -1  -4  -4  984.64   42.37   0
   0   6  -1  520.50   50.46   0
   1 -11 -12  282.86   40.96   0
   1   3   2   26.09   21.66   0
   3 -11  -9   54.61   52.40   0
  -2  -7 -13   12.12   26.70   0
  -2  -7 -12  734.69   38.47   0
  -1  -9 -12  873.70   40.87   0
   0 -10 -11   27.21   32.28   0
   2  -7  -3  927.85   63.03   0
   3  -9  -5  867.68   63.41   0
  -2  -7 -11  593.28   36.09   0
  -2  -6  -9  179.80   25.65   0
  -1  -9 -11  686.10   41.45   0
  -1  -7  -7   45.14   25.10   0
   0  -6  -4   17.31   27.62   0
   1 -11 -11  179.85   42.56   0
  -2  -2  -5  104.75   23.37   0
  -2   3  -7  739.09   62.95   0
   1  -8  -5 2529.14   74.04   0
   3 -12 -11   11.62   48.50   0
   2 -12 -12   11.73   39.33   0
   2 -10  -7  935.74   63.93   0
  -2  -7 -10  344.08   31.49   0
  -2  -5  -7  300.25   27.85   0
  -2  -4  -6 1647.16   47.87   0
  -2   2  -5  103.25   37.47   0
  -1  -9 -10  613.25   39.77   0
  -1  -3  -3  329.92   29.42   0
  -1  -1  -2 3811.92  103.38   0
   1 -10  -8  820.29   51.86   0
  -2  -8 -14  504.25   32.79   0
  -2  -8 -13  349.42   32.57   0
  -2  -8 -12   87.14   29.46   0
  -1 -10 -14  158.04   34.32   0
  -1  -8  -8  949.72   40.55   0
   1 -11 -10  583.34   50.06   0
   3 -11  -8  506.70   64.72   0
  -2  -8 -15   32.93   27.58   0
   0  -4  -2 1164.49   54.84   0
   2 -12 -11  265.16   46.85   0
  -3  -3 -11 1279.45   46.81   0
  -2  -8 -11 1067.28   43.56   0
  -2  -7  -9  560.54   33.03   0
  -1 -10 -12   11.66   29.04   0
   1  -9  -6  251.11   41.32   0
  -3  -4 -12  255.38   34.21   0
  -3  -3 -12   73.13   30.45   0
  -3  -3 -10    2.43   26.59   0
  -3  -2 -11  235.58   35.55   0
  -3  -2 -10  972.93   43.11   0
  -2  -3  -5 3727.67   71.30   0
  -2   3  -6  405.46   57.08   0
  -1  -9  -9 1743.00   53.10   0
   1 -12 -12  504.47   46.33   0
  -3  -4 -13  524.91   39.31   0
  -3  -3 -13  371.51   40.37   0
  -3  -2 -12  788.95   47.16   0
  -3  -2  -9 1567.02   50.07   0
  -2  -9 -14   -7.04   27.96   0
  -1 -10 -11  855.71   40.58   0
  -3  -5 -13   43.70   29.29   0
  -3  -1 -11  190.19   39.87   0
  -3  -1 -10  782.95   45.14   0
  -2  -8 -10  103.60   28.83   0
  -1  -5  -4  291.46   29.22   0
   1 -11  -9   20.97   44.23   0
   2 -11  -8   70.77   52.10   0
  -3  -4 -14   -0.91   31.82   0
  -3  -2 -13   15.43   39.63   0
  -3  -1  -9   11.06   26.69   0
  -2  -9 -12  296.93   36.33   0
  -2  -6  -7 1384.99   43.19   0
  -1  -8  -7  765.22   38.07   0
   2 -12 -10   80.29   50.15   0
   2   0   2  624.94   56.17   0
   3  -7  -2   56.20   57.32   0
  -3  -5 -10 1300.13   41.48   0
  -3  -3 -14  410.01   43.19   0
  -3  -1 -12  540.57   48.34   0
  -2  -7  -8   68.29   24.70   0
  -1 -11 -13  379.02   33.78   0
   1 -12 -11  174.83   42.12   0
   1 -10  -7   98.86   43.60   0
  -3  -5 -15  244.57   33.88   0
  -3  -4 -15  184.10   37.17   0
  -3  -2  -8   46.57   24.56   0
  -2  -9 -11  262.08   33.35   0
  -2   1  -4  536.78   46.40   0
  -1 -10 -10  169.39   32.46   0
   0 -11 -10   33.79   37.10   0
   0 -10  -8  757.63   50.53   0
  -3  -7 -13  480.23   34.11   0
  -3  -6 -15    7.08   29.94   0
  -3  -5  -9 1161.66   40.83   0
  -3  -2 -14  557.87   50.40   0
  -3  -1  -8 1263.19   47.17   0
  -3   0 -10   64.01   36.40   0
  -2 -10 -14  367.36   36.79   0
  -2  -8  -9 1558.43   46.48   0
  -2  -4  -5 1396.50   45.64   0
  -1 -11 -12  392.98   35.95   0
  -1  -9  -8    2.29   28.74   0
   3  -6  -1  276.86   73.74   0
  -3  -7 -12   98.99   26.31   0
  -3  -6 -10   44.05   24.77   0
  -3  -4  -8 1561.90   44.76   0
  -3  -3 -15   25.63   41.98   0
  -3   0 -11  992.69   53.59   0
  -3   0  -9  988.93   49.43   0
  -2 -10 -13  232.03   32.33   0
  -2  -2  -4 2183.03   59.43   0
   0 -12 -12    0.11   38.64   0
   0   3   0 3955.21  118.10   0
  -1  -4  -3 5661.04   95.79   0
  -1  -2  -2 3557.96   90.00   0
   1 -12 -10  293.62   46.34   0
  -3  -8 -14   78.23   28.45   0
  -3   0  -8  833.42   46.65   0
  -2 -10 -12  731.91   40.73   0
  -2  -9 -10  648.98   38.75   0
   0   5  -1 2995.79   88.05   0
   1 -11  -8  840.63   58.65   0
   2 -12  -9  110.92   52.63   0
   3  -9  -4  739.43   67.93   0
  -3  -8 -13  241.43   28.17   0
  -3  -6  -9 2337.03   51.39   0
   0 -12 -11  623.92   48.69   0
   0  -9  -6 1025.77   49.12   0
  -3  -5  -8  576.09   31.26   0
  -3  -3  -7  887.97   35.55   0
  -3  -1  -7  710.19   38.50   0
  -2  -6  -6 1183.12   39.89   0
   1  -9  -5  150.20   41.12   0
   2 -13 -11   44.28   47.01   0
   2 -11  -7  545.01   62.87   0
  -2 -10 -11   19.45   31.03   0
  -1  -8  -6  277.89   29.87   0
  -1  -7  -5  578.36   34.29   0
  -1   4  -3   14.97   52.28   0
   1  -6  -2 1609.00   69.55   0
  -3  -9 -14  453.81   32.03   0
  -3  -8 -11   21.45   27.14   0
  -3  -4  -7  675.56   32.06   0
  -2  -5  -5  285.92   27.23   0
  -2  -3  -4 1042.09   41.15   0
   0 -10  -7 1165.51   55.58   0
  -3  -9 -13   35.96   27.34   0
  -3   0  -7  110.02   30.97   0
  -2 -11 -13   49.83   31.08   0
   1 -10  -6  696.19   54.12   0
  -3  -9 -12  353.02   33.26   0
  -3  -7  -9  358.71   29.79   0
  -3  -6  -8  183.70   24.85   0
  -3   1  -9  794.48   51.21   0
   1 -13 -11  571.30   50.96   0
  -3  -8 -10  741.57   37.43   0
  -2 -11 -12  284.89   32.59   0
   0 -13 -12  252.05   41.41   0
   0  -5  -2  518.59   42.31   0
   2  -8  -3  608.39   58.50   0
  -3 -10 -14  240.86   32.08   0
  -3  -5  -7 3705.86   63.99   0
  -3   1  -8  259.49   36.75   0
   0 -11  -8   41.51   39.47   0
   0   2   0 2326.93  111.28   0
   2 -12  -8  407.20   60.87   0
   2  -9  -4  173.35   47.79   0
  -3 -10 -13  515.31   36.30   0
  -3  -9 -11  530.42   37.22   0
  -3  -3  -6 3029.85   60.21   0
  -3  -1  -6  242.00   29.48   0
  -2  -8  -7  653.52   34.99   0
  -1 -12 -11  132.03   36.63   0
   1 -11  -7  289.66   54.17   0
  -4  -6 -13  510.96   36.86   0
  -4  -5 -13  691.61   41.26   0
  -4  -5 -12   14.91   28.56   0
  -4  -4 -12  562.03   37.99   0
  -2  -9  -8 1971.29   52.74   0
  -2  -7  -6  118.35   23.33   0
  -2  -4  -4 4112.60   74.09   0
  -1  -5  -3 3133.10   71.13   0
   2  -7  -2  799.28   64.76   0
  -4  -6 -14   77.52   30.95   0
  -4  -5 -14  195.56   33.09   0
  -4  -5 -11  745.77   38.25   0
  -4  -4 -13   65.68   31.66   0
  -4  -4 -11  878.90   40.95   0
  -3  -7  -8  988.37   37.58   0
  -2 -12 -13  394.61   34.58   0
   1 -13 -10    2.01   50.64   0
   2 -10  -5  885.72   61.67   0
  -4  -7 -15  194.19   31.44   0
  -4  -7 -14  647.12   38.46   0
  -4  -5 -15   61.86   33.20   0
  -4  -4 -14  359.27   41.07   0
  -4  -3 -12  807.15   45.72   0
  -4  -3 -11   38.58   31.31   0
  -3 -10 -12   63.63   30.89   0
  -3  -9 -10   78.36   30.28   0
  -3  -4  -6  971.65   36.66   0
  -2 -10  -9  382.91   34.36   0
  -2  -6  -5 2916.66   59.83   0
   0 -12  -9  399.25   47.66   0
   1   3   1 1348.56   57.44   0
  -4  -4 -10  152.31   31.02   0
  -4  -3 -13  272.41   40.67   0
  -3  -6  -7 1971.78   48.15   0
  -3   0  -6 1888.62   59.01   0
  -3   1  -7 1146.00   53.96   0
   0  -9  -5 1209.86   54.85   0
   1 -12  -8  142.58   52.49   0
   1  -5  -1   22.22   39.24   0
  -4  -8 -13  365.40   31.35   0
  -4  -4 -15   72.69   38.96   0
  -4  -3 -14   57.51   41.98   0
  -4  -3 -10 1199.16   45.12   0
  -2 -12 -12   96.99   32.76   0
  -1 -13 -12   81.85   37.86   0
  -1 -12 -10  346.58   42.37   0
   0 -10  -6   44.38   40.15   0
   0  -8  -4 2429.11   67.70   0
  -4  -7 -11  207.78   26.93   0
  -4  -6 -10  777.65   35.19   0
  -4  -2 -12   68.49   39.69   0
  -4  -2 -11  719.18   44.28   0
  -3 -11 -13  338.12   34.65   0
  -2 -11 -10   26.47   27.73   0
  -2  -1  -3   30.28   19.96   0
  -4  -9 -14   33.31   28.79   0
  -4  -8 -12  137.84   26.24   0
  -4  -2 -10  627.47   41.45   0
  -3  -5  -6    2.43   19.80   0
  -4  -3  -9  371.50   31.07   0
  -3 -11 -12  279.34   32.40   0
  -3  -9  -9  683.76   37.65   0
  -2  -9  -7   97.79   28.97   0
  -2  -5  -4 2662.06   59.56   0
  -2  -2  -3 6110.92   98.00   0
  -1 -11  -8  822.93   48.13   0
   0 -11  -7  650.27   48.32   0
   0  -7  -3  333.54   39.00   0
   1   2   1   49.41   21.07   0
  -4  -8 -11  955.20   38.43   0
  -4  -7 -10  688.39   34.08   0
  -3  -7  -7   15.00   21.90   0
  -2 -10  -8  123.91   29.95   0
  -1 -13 -11  247.47   44.32   0
   1   1   1 4740.91  130.10   0
  -4  -9 -12  266.87   29.14   0
  -4  -6  -9  265.48   27.04   0
  -4  -2  -9  274.89   30.94   0
  -3 -10 -10  140.10   30.40   0
  -3  -2  -5 1264.64   44.69   0
   0   4  -1 1476.66   64.91   0
   1 -13  -9  407.00   54.81   0
   2  -6  -1 1748.62   96.73   0
  -4  -1 -11  552.75   46.10   0
  -3  -3  -5   53.57   19.17   0
  -2  -7  -5 1437.10   44.79   0
  -1 -12  -9  532.72   46.61   0
   0 -12  -8  868.50   55.64   0
  -4 -10 -13   27.04   27.89   0
  -4  -3  -8 1328.23   42.43   0
  -4  -1 -10   46.47   33.46   0
  -3 -11 -11   65.10   29.06   0
  -3  -6  -6 1042.25   37.32   0
  -2  -3  -3 1386.84   46.90   0
  -4  -9 -11  440.99   33.15   0
  -4  -8 -10   10.69   26.05   0
  -4  -7  -9 1273.77   41.63   0
  -4  -5  -8 2103.64   47.23   0
  -3  -4  -5  813.87   34.93   0
  -3   1  -6  435.34   41.18   0
  -3   2  -8  359.96   50.03   0
  -1  -6  -3  376.40   30.42   0
  -1  -4  -2   97.90   22.50   0
   0   5  -2 1754.13   69.32   0
   4  -3   1   41.07   48.15   0
  -3  -9  -8   22.08   27.33   0
   1 -12  -7  458.07   60.44   0
  -4  -6  -8 1022.33   36.49   0
  -3 -12 -12  606.68   35.75   0
  -3 -10  -9  709.34   38.76   0
  -3  -8  -7 2526.03   54.45   0
  -1 -13 -10   34.46   39.60   0
   0 -13  -9   12.55   41.08   0
  -2  -6  -4  448.80   30.31   0
  -1 -10  -6 1348.83   54.80   0
   1  -7  -2   86.54   39.74   0
  -4 -11 -13   99.83   30.43   0
  -4  -9 -10  790.22   37.27   0
  -4  -8  -9  381.42   31.51   0
  -3  -7  -6 2031.09   49.26   0
  -3  -5  -5 1548.28   43.44   0
  -3   0  -5  331.80   31.70   0
  -2 -13 -11   15.48   34.71   0
  -1 -11  -7  330.80   40.48   0
  -5  -7 -14   58.28   29.89   0
  -5  -7 -13  799.87   40.12   0
  -5  -6 -14  384.60   33.96   0
  -5  -6 -13  285.66   33.88   0
  -4  -4  -7 2155.49   48.74   0
  -3 -12 -11  210.47   31.76   0
  -2  -9  -6  760.16   37.12   0
  -2  -4  -3  418.15   29.09   0
   0 -10  -5  920.79   52.25   0
  -5  -8 -14  176.41   30.15   0
  -5  -6 -12  308.22   33.03   0
  -5  -5 -14  156.58   36.35   0
  -5  -5 -13   38.35   30.33   0
  -5  -5 -12  788.98   41.38   0
  -4  -7  -8   75.31   23.19   0
  -4  -1  -8  281.86   32.92   0
  -1 -12  -8   92.88   38.89   0
   0 -11  -6  453.03   47.72   0
   0  -9  -4  459.15   42.34   0
  -4  -5  -7   17.81   19.12   0
  -4  -2  -7   16.31   23.13   0
  -2 -12  -9   55.45   35.45   0
  -2  -8  -5   37.54   22.62   0
   0 -14 -10   71.19   48.07   0
  -5  -5 -15  145.56   38.67   0
  -5  -5 -11   49.51   28.73   0
  -5  -4 -12  287.91   36.44   0
  -4   0 -10  583.66   46.58   0
  -3 -10  -8  989.18   41.28   0
  -3   2  -7 1472.84   70.75   0
   0 -12  -7  104.02   48.67   0
   2 -10  -4  113.17   48.81   0
  -5  -9 -13  189.41   30.49   0
  -4 -10 -10  822.65   40.10   0
  -4  -9  -9   19.00   28.46   0
  -4  -6  -7  794.28   33.17   0
  -3 -11  -9    8.31   26.73   0
  -3  -9  -7 1387.34   45.37   0
  -3  -6  -5  445.54   27.51   0
  -2 -13 -10  482.57   47.43   0
  -5  -4 -11  322.85   33.52   0
  -4 -11 -11  646.39   36.57   0
  -4  -8  -8  678.48   34.35   0
  -4   0  -9  349.30   39.52   0
  -3 -12 -10  226.60   34.03   0
  -1  -5  -2 3724.53   78.10   0
   2  -9  -3 1124.19   71.31   0
  -5  -9 -12  518.41   30.55   0
  -5  -8 -11   14.85   23.06   0
  -5  -5 -10  357.44   31.17   0
  -3  -8  -6   75.41   23.45   0
  -3  -3  -4 2580.80   56.37   0
  -3  -2  -4 2083.04   52.14   0
  -2  -7  -4  940.09   37.75   0
  -2  -5  -3 2283.87   55.43   0
   0 -13  -8  407.97   55.65   0
  -5  -7 -10  510.00   29.46   0
  -5  -4 -10  780.87   38.53   0
  -5  -3 -12   97.20   37.69   0
  -4 -12 -12   53.95   29.80   0
  -4  -1  -7  303.90   30.80   0
  -1 -14 -10  497.41   47.04   0
  -4  -7  -7 1300.46   39.04   0
  -3  -4  -4   98.70   20.44   0
  -2 -11  -7  651.55   43.84   0
  -5 -10 -12    0.85   24.82   0
  -5  -9 -11  522.62   30.08   0
  -4 -11 -10    7.21   26.27   0
  -4 -10  -9  505.80   35.55   0
  -4   0  -8  260.58   33.53   0
  -2 -12  -8  529.47   43.88   0
  -1 -11  -6  272.58   40.55   0
   0 -14  -9  337.53   56.61   0
   1 -10  -4 1644.84   66.17   0
  -5  -8 -10  723.71   33.30   0
  -5  -3 -10   76.61   28.79   0
  -4  -9  -8 1102.81   41.17   0
  -3 -11  -8  768.51   39.98   0
  -3  -7  -5  454.82   27.53   0
  -3   1  -5 2159.54   68.49   0
  -1 -12  -7 1047.95   53.40   0
  -1 -10  -5   11.27   31.84   0
  -5  -4  -9  167.53   26.68   0
  -4 -12 -11  542.95   35.10   0
  -3 -10  -7   32.59   26.96   0
  -2 -13  -9  111.90   41.33   0
  -1  -2  -1   50.23   19.49   0
   2  -8  -2  553.28   62.14   0
  -5 -10 -11  739.70   34.70   0
  -5  -7  -9  166.36   24.39   0
  -4  -8  -7  227.53   26.69   0
  -4  -6  -6  582.09   29.69   0
  -3  -9  -6  869.59   37.53   0
  -3  -5  -4  313.22   23.81   0
  -1 -13  -8  241.43   43.73   0
  -1  -9  -4  895.08   45.11   0
   1  -9  -3   20.05   39.63   0
   1  -6  -1 1292.33   66.13   0
  -5 -11 -12  396.22   33.78   0
  -5  -9 -10  186.31   27.34   0
  -5  -3  -9  746.48   37.42   0
  -5  -2 -11  171.58   37.11   0
  -2  -6  -3 3721.03   68.04   0
   3  -2   1 1621.33   76.91   0
  -5  -8  -9  120.68   26.18   0
  -2 -14 -10   78.51   38.54   0
  -2  -8  -4 1335.05   44.80   0
  -2  -2  -2  966.00   41.61   0
   0 -12  -6  659.47   57.80   0
   0 -11  -5   75.57   44.65   0
   0   5  -3  866.54   50.50   0
  -5  -6  -8  517.61   29.59   0
  -5  -2 -10  361.46   36.61   0
  -4 -12 -10  423.05   32.31   0
  -4 -11  -9  560.20   34.75   0
  -4 -10  -8  332.72   32.64   0
  -3   2  -6  300.69   45.80   0
  -1 -14  -9   66.97   42.66   0
   2   2   1 5073.72   90.53   0
  -6  -7 -13   10.34   28.52   0
  -5 -11 -11  130.75   29.16   0
  -4  -7  -6  310.71   26.51   0
  -4  -1  -6  581.97   33.40   0
  -4   0  -7 1849.68   57.30   0
  -3  -8  -5 1639.69   45.47   0
  -3  -6  -4 2763.14   55.37   0
  -2  -3  -2 3675.55   72.35   0
  -2  -1  -2 4996.79   94.39   0
  -1  -6  -2 2719.80   66.55   0
  -1  -3  -1 1321.96   53.05   0
   0 -13  -7  374.18   53.59   0
  -6  -8 -13  344.91   30.47   0
  -6  -6 -14   66.40   32.13   0
  -6  -6 -13  250.30   31.11   0
  -5  -9  -9 1052.15   38.50   0
  -5  -7  -8 1729.76   44.61   0
  -4 -13 -11   12.00   32.61   0
  -4  -9  -7  450.69   32.15   0
  -1  -8  -3 1283.01   50.58   0
   1   3   0   25.55   19.02   0
  -6  -8 -12   59.48   26.89   0
  -6  -7 -12  626.88   35.42   0
  -6  -6 -12  532.98   35.74   0
  -5  -3  -8  644.59   33.82   0
  -5  -2  -9  945.64   44.10   0
  -4  -4  -5  336.03   23.65   0
  -2 -12  -7   40.40   34.07   0
  -4  -5  -5  144.31   20.62   0
  -3 -13  -9  463.34   40.89   0
  -2 -13  -8  305.92   43.19   0
   1  -8  -2  765.17   54.58   0
  -6  -6 -11   96.45   28.73   0
  -6  -5 -13  289.71   37.77   0
  -6  -5 -12   10.21   28.44   0
  -5  -8  -8  544.90   31.98   0
  -4  -8  -6 2082.90   47.61   0
  -3 -10  -6 1032.90   40.71   0
  -2 -10  -5 1255.95   47.62   0
  -2  -4  -2 3898.34   71.83   0
  -5 -12 -11  205.28   30.36   0
  -5 -11 -10  671.91   36.96   0
  -5 -10  -9  281.97   32.40   0
  -5  -5  -7 1266.73   37.00   0
  -4 -12  -9  237.95   29.78   0
  -4 -11  -8   60.21   26.73   0
  -3 -14 -10  208.25   37.46   0
  -3  -7  -4  609.19   31.63   0
  -2 -14  -9  554.06   44.59   0
  -2  -7  -3   13.62   21.03   0
  -1 -13  -7  234.27   48.55   0
  -1 -12  -6  190.59   44.06   0
  -6  -5 -11  648.45   37.44   0
  -5  -6  -7  671.14   30.41   0
  -4 -10  -7 1373.33   44.33   0
  -4  -6  -5  759.75   31.44   0
  -3  -3  -3 3070.33   60.83   0
   0   4  -2  237.64   31.93   0
  -6  -9 -11  143.84   25.36   0
  -6  -6 -10 1064.27   39.25   0
  -5  -9  -8   83.06   27.70   0
  -5  -2  -8    9.60   23.88   0
  -5  -1 -10  584.91   43.08   0
  -3  -4  -3 3062.19   58.85   0
  -3  -2  -3 1399.03   43.04   0
  -2   0  -2  631.55   41.47   0
  -1 -14  -8  512.51   56.08   0
  -1  -4  -1 5544.84   96.61   0
  -6  -8 -10  106.02   27.03   0
  -6  -4 -12  522.27   41.37   0
  -5  -7  -7    6.83   20.39   0
  -5  -3  -7  433.68   29.62   0
  -4   1  -8  994.86   55.01   0
  -1 -10  -4  447.39   40.03   0
   3  -1   1   25.60   26.63   0
  -6 -10 -11   36.63   23.14   0
  -6  -5 -10  177.74   28.12   0
  -6  -4 -11  320.08   36.15   0
  -4  -9  -6  648.77   35.65   0
  -4  -7  -5 1127.93   37.53   0
  -4   0  -6   71.36   25.85   0
  -2  -5  -2  876.86   36.97   0
  -6  -9 -10  527.23   29.86   0
  -5 -12 -10  115.42   30.26   0
  -5 -11  -9   63.57   28.46   0
  -5  -8  -7  578.51   31.65   0
  -5  -1  -9   66.04   30.80   0
  -3 -13  -8  355.26   43.16   0
  -3  -5  -3  616.45   30.49   0
  -5 -10  -8  627.33   35.44   0
  -4  -1  -5  267.78   26.84   0
  -3 -14  -9   -4.31   38.17   0
  -3  -1  -3 5370.84   86.25   0
  -6 -11 -11  392.28   31.07   0
  -6  -4 -10   99.26   30.14   0
  -3  -8  -4  285.12   26.44   0
   4  -4   0 1152.81   73.96   0
  -6 -10 -10  321.76   28.95   0
  -6  -8  -9  922.32   34.49   0
  -6  -5  -9  520.76   31.27   0
  -5  -6  -6 1367.18   37.94   0
  -5  -5  -6  127.81   20.09   0
  -5  -2  -7 1916.44   49.23   0
  -4 -11  -7  419.22   32.09   0
  -4  -8  -5    5.55   21.38   0
  -2 -14  -8    0.66   37.36   0
  -2 -11  -5  306.23   39.64   0
  -1  -9  -3  211.57   34.87   0
   2  -7  -1   28.46   50.54   0
  -6  -3 -11    6.54   35.59   0
  -5  -9  -7  999.76   38.90   0
  -5  -1  -8 1613.78   53.02   0
  -4  -4  -4 1165.46   35.71   0
  -4  -3  -4   16.92   16.60   0
  -3  -6  -3  114.03   20.31   0
  -3   1  -4 1628.03   60.62   0
  -6  -9  -9   70.06   24.50   0
  -5  -7  -6 1359.49   38.87   0
  -4 -10  -6   23.12   25.48   0
  -4   1  -7  328.60   40.02   0
  -1  -5  -1  563.80   37.31   0
   1 -10  -3  875.60   58.76   0
  -6 -11 -10   -7.52   26.47   0
  -6  -3 -10  484.68   38.88   0
  -5 -11  -8  449.05   32.27   0
  -2  -6  -2  875.05   36.44   0
   1   2   0 5579.11  106.97   0
  -6  -7  -8   50.64   22.42   0
  -6  -5  -8  729.95   35.52   0
  -4  -6  -4    2.52   17.71   0
  -2 -10  -4  177.90   32.04   0
  -1 -13  -6  470.75   54.52   0
  -7  -7 -12   78.81   26.80   0
  -6 -10  -9  491.84   31.31   0
  -6  -8  -8  406.32   29.28   0
  -5 -10  -7  103.36   27.70   0
  -5  -8  -6   21.40   23.65   0
  -3  -9  -4 1284.35   43.28   0
   1  -7  -1  715.70   55.78   0
  -7  -6 -13   88.71   33.12   0
  -4 -14  -9  363.49   41.13   0
  -4 -13  -8  446.83   38.74   0
  -4  -9  -5  833.00   37.28   0
  -3 -14  -8  305.66   43.02   0
  -3 -13  -7  208.20   41.88   0
  -3  -7  -3  827.35   33.70   0
  -7  -8 -11   -8.93   26.73   0
  -7  -7 -11  414.09   31.89   0
  -7  -6 -12  137.58   28.69   0
  -6  -9  -8  884.93   35.53   0
  -6  -4  -8   29.57   24.18   0
  -3 -12  -6   79.69   33.01   0
  -1 -11  -4    8.53   40.09   0
  -6 -11  -9  657.98   34.93   0
  -5 -13  -9  227.98   35.67   0
  -5 -12  -8   42.84   27.76   0
  -5  -5  -5 1696.53   41.03   0
  -5  -2  -6  135.45   22.20   0
  -5  -1  -7  974.87   42.43   0
  -4   0  -5 1878.33   54.31   0
  -1  -8  -2  575.13   38.84   0
  -7  -6 -11  701.65   36.24   0
  -6  -6  -7  777.60   32.65   0
  -5  -9  -6  472.33   31.27   0
  -5  -6  -5   31.48   18.79   0
  -5  -4  -5 1775.46   42.21   0
  -2 -14  -7  345.93   50.98   0
  -2 -13  -6   94.66   42.89   0
  -2  -9  -3 2157.25   56.03   0
  -7  -7 -10  504.17   32.50   0
  -7  -5 -12  452.30   40.63   0
  -6 -10  -8   87.39   27.85   0
  -5 -11  -7  131.19   26.93   0
  -2  -7  -2 2447.30   56.01   0
  -7  -9 -10   -0.78   26.15   0
  -6  -8  -7  326.38   28.02   0
  -6  -3  -8  452.16   32.40   0
  -6  -2 -10  338.72   36.83   0
  -5  -7  -5 1005.57   34.44   0
  -4 -10  -5  773.34   36.04   0
  -4  -8  -4 1598.88   43.01   0
  -3  -4  -2  478.78   26.92   0
  -3  -3  -2 4380.80   69.74   0
  -2 -15  -8  174.06   47.93   0
  -2 -12  -5  446.27   44.49   0
   1  -9  -2 1455.53   66.59   0
  -7  -6 -10   11.66   25.27   0
  -7  -5 -11  100.92   30.94   0
  -3  -8  -3 1397.00   42.54   0
  -1 -10  -3  533.07   41.79   0
   0  -7  -1   60.93   29.98   0
  -6 -12  -9   13.48   26.95   0
  -6  -4  -7 1053.12   37.40   0
  -4 -14  -8   42.06   36.20   0
  -3  -5  -2 3370.90   59.94   0
  -2  -3  -1 1688.00   48.71   0
  -7  -7  -9   45.50   24.71   0
  -7  -5 -10  429.02   34.22   0
  -6 -11  -8  250.06   28.63   0
  -6  -9  -7  234.57   28.30   0
  -6  -2  -9  112.44   32.13   0
  -4 -13  -7  575.66   42.05   0
  -4  -5  -3 2733.19   50.95   0
  -4  -4  -3  216.50   20.78   0
  -2 -11  -4 1065.37   49.35   0
  -2  -4  -1 1109.62   39.70   0
   0  -9  -2   94.24   37.38   0
   4  -3   0  792.19   51.97   0
  -7  -6  -9  625.22   34.47   0
  -4 -12  -6  429.93   37.12   0
  -4  -3  -3 2244.22   47.77   0
  -3 -14  -7   39.55   37.37   0
  -6  -6  -6  164.76   22.02   0
  -5 -12  -7  619.85   36.65   0
  -5  -1  -6  362.50   28.83   0
  -4  -9  -4  198.60   26.40   0
  -4  -6  -3 2883.93   52.89   0
   0   4  -3 2392.95   69.45   0
  -7  -4 -11   87.52   35.01   0
  -6 -10  -7  784.74   36.70   0
  -6  -7  -6  276.60   26.58   0
  -6  -3  -7 1336.16   42.06   0
  -5  -9  -5  388.20   30.67   0
  -5  -2  -5 1481.04   41.22   0
  -3 -12  -5  409.92   40.76   0
  -3  -6  -2  836.79   33.28   0
  -7  -5  -9  551.48   33.82   0
  -6  -8  -6  576.76   31.14   0
  -6  -2  -8 1076.21   44.04   0
  -5 -11  -6  196.51   28.53   0
  -2 -10  -3  315.30   36.52   0
  -2  -5  -1 1520.92   44.92   0
  -7  -8  -8  379.71   26.00   0
  -7  -4 -10  469.74   39.82   0
  -6 -12  -8  453.42   33.90   0
  -5  -6  -4 2446.68   47.49   0
  -5  -4  -4  279.23   22.81   0
  -4  -7  -3  544.74   28.82   0
  -4  -2  -3 3071.74   56.13   0
  -7 -11  -9   38.40   26.88   0
  -7  -9  -8   16.19   22.53   0
  -7  -6  -8  160.11   26.97   0
  -2  -1  -1 1589.83   51.72   0
  -6 -11  -7  465.31   32.52   0
  -6  -9  -6  324.32   30.50   0
  -3 -11  -4   10.96   30.44   0
  -3  -7  -2    3.11   17.36   0
   1   1   0 3107.78   88.39   0
  -8  -1   5   83.89   22.81   0
  -8   2   5   14.31   26.29   0
  -7  -9   1  454.36   40.00   0
  -7  -1   5  489.93   29.12   0
  -7   3   5   49.87   23.62   0
  -5  -3   4 1026.64   33.77   0
  -5   1   5 1082.56   35.13   0
  -2 -10  -4  141.86   54.93   0
  -8  -8   2  106.59   32.78   0
  -6  -6   3  267.83   28.09   0
  -6  -4   4  462.47   29.46   0
  -6  -1   5  363.99   26.37   0
  -4  -2   4  749.13   30.07   0
  -3   2   4  708.33   30.94   0
  -9   0   5   55.44   25.99   0
  -9   1   5  100.04   27.84   0
  -8  -2   5  123.98   25.89   0
  -8   3   5  451.60   31.57   0
  -7  -8   2  353.20   36.90   0
  -7  -2   5  563.78   32.00   0
  -6 -11  -1  298.94   47.13   0
  -6 -10   0  598.95   45.82   0
  -5  -7   2  728.84   37.80   0
  -5   0   5   35.50   18.35   0
  -5   3   5  336.83   26.30   0
  -3   1   4   34.90   16.16   0
  -2  -3   2 1996.96   50.33   0
  -2   0   3 3815.31   67.73   0
  -8  -5   4  387.50   32.41   0
  -7  -5   4    1.22   25.21   0
  -6  -9   1  133.82   35.40   0
  -6  -2   5   78.05   24.35   0
  -6   4   5  431.34   32.11   0
  -3  -3   3 1118.79   35.86   0
  -9   2   5  274.09   30.03   0
  -7   4   5  138.43   29.68   0
  -4   5   4 1588.42   51.36   0
  -3  -5   2 1645.58   44.09   0
  -3   0   4 2168.02   46.98   0
  -8  -3   5  542.77   34.53   0
  -7  -3   5   95.68   29.24   0
  -6  -8   2   61.85   31.79   0
  -9   3   5   57.83   29.63   0
  -8   4   5  413.82   37.85   0
  -6  -5   4  953.63   37.13   0
  -6   6   4  112.86   35.51   0
  -5   4   5  799.84   35.14   0
  -4  -5   3  772.24   33.47   0
  -4  -3   4  327.58   24.30   0
  -6  -3   5  876.14   35.93   0
  -5  -2   5 1782.19   42.95   0
  -4   1   5  318.70   22.75   0
  -4   2   5  186.30   19.88   0
  -2  -1   3 4798.73   73.32   0
  -1   1   2    8.37   17.22   0
  -8  -6   4  209.10   30.04   0
  -8  -4   5  265.93   31.15   0
  -7   0   6  960.42   34.73   0
  -5   6   4  450.30   37.44   0
  -4  -9   0  458.24   38.95   0
  -4   0   5 2289.71   46.35   0
  -8   1   6   57.52   25.01   0
  -7 -11   0  305.48   42.80   0
  -7 -10   1  171.00   35.92   0
  -7  -6   4  317.23   30.16   0
  -7  -4   5  312.08   31.96   0
  -7   2   6   12.60   22.43   0
  -7   5   5  533.30   40.65   0
  -6   1   6  437.58   27.42   0
  -6   5   5    5.16   31.08   0
  -4  -8   1 1329.13   46.52   0
  -3  -9  -1  133.95   33.99   0
  -1   2   2 4049.91  100.06   0
  -8  -1   6  438.11   27.88   0
  -8   2   6  342.90   29.29   0
  -7  -9   2    1.23   33.38   0
  -7  -1   6   34.77   23.45   0
  -6   0   6  180.20   24.20   0
  -5 -10   0   25.15   36.58   0
  -5  -9   1  516.03   40.77   0
  -3  -4   3   90.00   19.96   0
  -1   0   2 2851.91   71.92   0
  -7   3   6  365.68   30.02   0
  -6   3   6  193.56   26.33   0
  -5  -5   4   35.52   22.36   0
  -4 -11  -2  391.74   44.02   0
  -4  -7   2  163.91   27.08   0
  -3  -7   1 1048.50   42.67   0
  -1  -3   1 4043.23   83.97   0
  -8  -2   6  285.70   28.54   0
  -8   3   6  163.32   27.30   0
  -7  -2   6  433.50   30.79   0
  -5  -8   2  559.28   36.88   0
  -5  -3   5  107.81   23.45   0
  -5   5   5 2227.28   56.70   0
  -4   4   5 2013.64   49.45   0
  -3 -10  -2  212.39   39.67   0
  -3  -2   4   44.81   16.62   0
  -2  -4   2   14.27   17.70   0
  -8  -5   5   16.35   27.84   0
  -7  -8   3  160.23   34.71   0
  -5   1   6  744.12   29.81   0
  -4  -4   4   88.39   20.44   0
  -2  -2   3  129.48   19.07   0
  -1  -7  -2    2.90   34.78   0
  -1  -6  -1 1343.41   64.28   0
  -7  -5   5  566.11   32.50   0
  -7   4   6  709.34   36.79   0
  -6 -11   0   71.61   41.38   0
  -6 -10   1   58.30   35.74   0
  -5   0   6  728.36   31.52   0
   0  -6  -4   21.83   34.07   0
  -8  -3   6   35.67   27.00   0
  -7  -3   6  493.80   33.44   0
  -6  -9   2  741.87   42.89   0
  -6  -2   6  562.68   31.04   0
  -6   4   6  219.37   27.88   0
  -5  -7   3    9.62   26.71   0
  -5   3   6  738.61   32.20   0
  -4  -2   5  130.10   19.15   0
  -8   4   6   -6.71   30.04   0
  -5  -1   6  317.64   26.01   0
  -4   6   4  102.44   29.58   0
  -3   6   3   61.88   33.32   0
  -1  -1   2  170.12   21.93   0
  -6  -8   3  433.56   35.62   0
  -6  -5   5   65.19   23.49   0
  -6   6   5  483.53   40.42   0
  -5  -4   5  474.95   30.94   0
  -3   1   5 2161.64   45.60   0
  -2  -8  -1 1833.98   63.66   0
  -8   1   7  355.00   29.40   0
  -6  -3   6   -1.01   23.85   0
  -5   4   6 1144.17   39.39   0
  -3  -3   4  673.73   28.66   0
  -3   2   5 2173.05   46.31   0
  -3   5   4 1321.19   49.69   0
  -8   2   7   62.06   25.40   0
  -7 -11   1   16.90   39.18   0
  -7  -4   6   94.26   26.12   0
  -7   0   7  227.26   23.44   0
  -7   2   7  557.61   30.98   0
  -7   5   6  144.32   35.15   0
  -5  -2   6  343.56   28.28   0
  -4  -3   5 1736.35   41.54   0
  -4   5   5    4.70   24.06   0
  -3   0   5   61.52   17.01   0
  -2   1   4 5129.56   74.55   0
  -1   5  -1  708.80   52.88   0
  -8  -1   7   18.07   21.63   0
  -7 -10   2  211.55   37.12   0
  -7  -6   5  133.98   29.70   0
  -6  -7   4   26.20   27.50   0
  -6   1   7  959.17   32.96   0
  -6   5   6  928.01   42.83   0
  -4  -5   4 1371.37   38.77   0
  -4   1   6 1252.80   35.84   0
  -4   2   6 2361.69   46.46   0
  -2  -3   3 1117.42   37.58   0
  -2   2   4  818.51   34.08   0
  -8  -2   7  470.33   31.06   0
  -8   3   7  163.95   26.96   0
  -7  -9   3  367.81   37.46   0
  -7   3   7  427.44   29.86   0
  -6   0   7  400.11   27.41   0
  -5   6   5  394.62   35.09   0
  -4   0   6  145.80   19.80   0
  -2  -9  -2  115.35   37.21   0
  -2   0   4  999.39   34.51   0
  -7  -2   7  102.09   25.37   0
  -6   3   7  151.59   25.65   0
  -5 -10   1  723.31   46.41   0
  -4  -9   1  278.79   37.18   0
  -4  -8   2  294.68   34.10   0
  -7  -8   4   86.89   32.52   0
  -6  -4   6  514.66   31.79   0
  -6  -1   7    8.15   20.34   0
  -5  -9   2   52.11   32.85   0
  -5  -5   5 1040.70   36.54   0
  -5  -3   6 1845.61   45.25   0
  -7  -5   6   20.30   23.44   0
  -7   4   7   16.53   25.75   0
  -5  -8   3  522.32   36.31   0
  -5   1   7   35.61   19.78   0
  -5   5   6  111.98   27.74   0
  -4  -7   3  675.46   37.00   0
  -2   3   4  235.38   24.63   0
  -1  -2   2   31.46   15.75   0
  -8   4   7  410.24   33.34   0
  -7  -3   7  118.41   28.31   0
  -6 -10   2  278.24   34.69   0
  -6   4   7  548.60   32.09   0
  -5   0   7  401.92   26.73   0
  -4   4   6   29.16   22.50   0
  -3  -4   4 1658.31   41.23   0
  -3   4   5  691.81   33.42   0
  -6 -11   1  250.85   41.41   0
  -6  -9   3   19.66   32.50   0
  -5  -7   4  680.99   37.40   0
  -5   3   7  535.52   30.95   0
  -3  -7   2 1360.59   44.89   0
  -3  -2   5 1132.17   34.37   0
  -5  -1   7  835.60   33.10   0
  -8   1   8   10.05   22.35   0
  -8   2   8  132.21   25.21   0
  -7   0   8  154.34   23.79   0
  -6  -8   4  467.57   37.24   0
  -6  -5   6  504.39   30.07   0
  -6   6   6  473.15   40.42   0
  -5  -4   6  372.74   29.24   0
  -7  -4   7  435.23   32.17   0
  -7   2   8  254.59   27.02   0
  -7   5   7  172.32   36.23   0
  -6  -3   7  563.31   31.92   0
  -5   4   7    6.12   23.51   0
  -2  -4   3 2299.47   49.62   0
  -2  -2   4 4057.50   62.98   0
  -2   5   3  784.78   51.85   0
  -8   3   8  255.84   27.93   0
  -7  -1   8   79.83   23.12   0
  -7   3   8   15.91   25.97   0
  -6  -7   5  447.29   35.94   0
  -6   1   8    6.84   20.18   0
  -6   5   7  314.12   36.13   0
  -5  -2   7  674.79   33.29   0
  -4   6   5 1113.82   46.74   0
  -4  -3   6   12.77   21.08   0
  -4   1   7 1078.00   33.24   0
  -3  -3   5  220.09   21.70   0
  -3   1   6 2616.60   48.45   0
  -3   2   6  388.51   23.17   0
  -2   6  -1  270.60   44.81   0
   0  -6  -5 1194.18   60.52   0
  -7  -2   8  508.08   33.14   0
  -6   3   8  720.22   33.15   0
  -4  -5   5   32.37   20.99   0
  -4   0   7 1150.95   34.47   0
  -4   2   7   42.10   17.30   0
  -4   5   6 1829.93   48.87   0
  -3   0   6 2479.71   46.95   0
  -1   1   3 3719.03   74.71   0
  -7   4   8  405.53   31.07   0
  -6  -4   7   70.92   24.07   0
  -6  -1   8  695.57   32.42   0
  -1  -3   2 1690.85   50.53   0
  -8   4   8   25.30   27.07   0
  -7  -5   7  308.78   29.01   0
  -5 -10   2  302.63   41.18   0
  -5  -9   3  548.04   39.25   0
  -5  -5   6   79.70   23.13   0
  -5  -3   7  107.17   25.17   0
  -4  -9   2  598.87   43.92   0
  -3  -1   6   31.91   16.83   0
  -2   1   5 1520.07   40.01   0
  -7  -3   8  338.43   31.47   0
  -6  -2   8   27.20   25.51   0
  -6   4   8   59.19   26.21   0
  -5  -8   4   88.78   31.78   0
  -5   1   8  878.10   32.09   0
  -5   5   7  625.13   34.97   0
  -4  -8   3  234.16   32.64   0
  -4   7   4  414.00   46.23   0
  -2  -8   0   58.52   31.99   0
  -2  -6   2 1589.23   47.92   0
  -2  -3   4 1702.32   41.61   0
  -2   0   5 3811.21   59.84   0
  -2   2   5  823.70   32.32   0
  -1  -9  -6  427.26   56.32   0
  -6 -10   3  340.35   38.74   0
  -6  -9   4  345.62   36.92   0
  -5   0   8  231.81   24.79   0
  -4  -7   4   26.07   26.72   0
  -1  -1   3  207.06   21.09   0
  -1   2   3  266.00   25.71   0
  -5  -7   5  114.37   29.64   0
  -5   3   8  238.46   25.44   0
  -4  -4   6  572.06   29.56   0
  -4   4   7 1558.00   41.61   0
  -3  -4   5  622.73   28.90   0
  -7   0   9  268.20   26.17   0
  -7   2   9  142.00   26.16   0
  -7   5   8  367.45   36.85   0
  -6  -8   5   23.13   31.05   0
  -6  -5   7  237.84   26.62   0
  -6  -3   8  216.50   26.13   0
  -6   6   7   57.70   34.49   0
  -5  -1   8  121.82   22.02   0
  -4  -2   7 1262.50   36.59   0
  -3  -8   2 1415.70   47.22   0
  -3  -2   6  389.37   24.38   0
  -3   4   6 1410.37   42.37   0
  -2  -1   5 1315.79   36.55   0
  -7  -1   9  291.32   27.69   0
  -7   3   9  432.54   30.49   0
  -5  -4   7  558.78   29.73   0
  -5   4   8  509.31   31.23   0
  -3  -7   3  116.54   27.02   0
  -2   3   5 3465.92   62.82   0
  -1  -6   0 1085.85   52.04   0
  -6  -7   6  188.93   32.80   0
  -6   1   9  716.66   32.50   0
  -6   5   8  276.04   33.08   0
  -2  -9  -1  875.80   51.84   0
  -6   0   9  196.39   23.15   0
  -4   6   6 1108.32   45.08   0
  -1  -2   3 5066.14   77.73   0
  -7   4   9  137.01   26.63   0
  -6  -1   9  128.77   24.38   0
  -6   3   9   13.27   23.45   0
  -5   6   7  851.09   42.35   0
  -4  -3   7 1089.49   36.47   0
  -4   1   8   32.95   20.52   0
  -4   2   8 1042.17   33.13   0
  -4   5   7  250.39   27.14   0
  -3   1   7  739.26   28.77   0
  -3   2   7 2306.82   45.36   0
  -2  -4   4   43.76   18.21   0
  -2  -2   5   22.74   15.71   0
   0  -5  -4 3447.47   97.19   0
  -6  -4   8  495.59   28.85   0
  -3 -10   0   15.40   34.49   0
  -3  -3   6 1380.30   37.14   0
  -3   0   7  592.18   26.45   0
  -1  -7  -1 3692.68  102.25   0
  -6   4   9  549.52   33.00   0
  -5  -5   7  367.34   29.48   0
  -5  -3   8  288.87   27.30   0
  -5   5   8  366.38   31.36   0
  -6  -2   9  601.07   32.44   0
  -5 -10   3   78.43   36.93   0
  -5  -9   4  102.24   32.13   0
  -5   0   9  956.48   34.00   0
  -5   1   9   52.80   20.22   0
  -3  -1   7 2086.17   42.63   0
  -3   5   6    6.70   19.84   0
  -1   3   3 2547.12   73.91   0
   0  -5  -5   29.07   25.56   0
  -6 -10   4   16.97   37.09   0
  -6   6   8  725.25   44.28   0
  -5  -8   5  661.56   39.44   0
  -4  -9   3   16.30   34.82   0
  -4  -8   4  552.77   36.05   0
  -2   5   4 1561.58   58.10   0
   0   1  -2  196.34   26.04   0
  -7   2  10  200.29   26.63   0
  -7   5   9   96.71   33.38   0
  -6  -9   5   80.39   32.68   0
  -4  -7   5  761.75   37.68   0
  -4  -4   7  104.03   22.66   0
  -4   4   8   -0.02   21.55   0
  -4   7   5 1106.84   54.88   0
  -3   6   5  343.48   35.88   0
  -2  -3   5 1484.52   38.79   0
  -2   0   6  904.61   30.36   0
  -2   1   6  736.55   27.70   0
  -2   2   6 1446.47   38.47   0
  -7   3  10   35.49   24.46   0
  -6  -8   6  259.73   33.10   0
  -6  -3   9  176.51   28.22   0
  -5  -7   6  538.33   35.52   0
  -5  -4   8    9.34   22.56   0
  -4  -2   8  234.92   25.11   0
  -3  -4   6  393.24   25.24   0
  -1  -3   3 1203.51   39.46   0
  -1   1   4  142.17   18.49   0
  -6   1  10  133.85   24.69   0
  -5   4   9   83.33   24.60   0
  -2  -6   3   51.53   22.03   0
  -6   0  10  583.39   27.73   0
  -5  -6   7    1.79   26.97   0
  -5  -2   9    6.07   24.62   0
  -4  -6   6  237.72   28.91   0
  -3  -8   3  210.59   32.37   0
  -2  -8   1  970.89   46.47   0
  -2  -1   6 2447.70   46.21   0
  -2   3   6 1087.08   34.89   0
  -1  -1   4 5090.42   73.32   0
  -7   4  10  208.29   27.64   0
  -6  -1  10  169.89   25.59   0
  -6   3  10  545.87   31.55   0
  -5   6   8   36.94   30.54   0
  -4   6   7  229.48   30.74   0
  -3  -7   4  915.77   39.28   0
  -1   2   4 2696.22   60.16   0
  -4   1   9  799.38   30.62   0
  -4   2   9  953.63   31.86   0
  -4   5   8  477.04   30.45   0
  -3  -6   5  469.96   32.70   0
  -3   1   8 1211.87   34.24   0
  -3   2   8  128.01   19.90   0
  -6   4  10  406.35   31.35   0
  -5   5   9  203.09   28.64   0
  -4   0   9   78.65   21.57   0
  -3  -3   7  105.90   21.61   0
  -2  -2   6 1810.43   40.62   0
  -5  -3   9  179.64   24.67   0
  -5   1  10  753.58   30.00   0
  -5   7   7   26.97   31.64   0
  -3   3   8  341.27   23.28   0
  -2  -4   5 1685.26   40.98   0
  -1  -2   4  112.93   17.78   0
  -7   5  10  339.39   36.34   0
  -6   6   9   33.43   31.97   0
  -5  -9   5  259.79   34.96   0
  -5   0  10   31.13   20.73   0
  -4  -1   9  311.98   27.98   0
  -3  -1   8   -1.63   19.04   0
  -3   5   7 1258.93   40.47   0
  -1  -6   1  932.21   43.67   0
  -5 -10   4  332.87   42.13   0
  -5  -8   6    6.19   29.21   0
  -4   4   9 1082.64   37.66   0
  -4   7   6   44.65   31.95   0
  -2  -9   0  624.15   45.27   0
  -6   5  10   -1.09   24.97   0
  -5  -7   7  355.52   35.08   0
  -5  -1  10  319.45   27.50   0
  -4  -9   4  413.95   40.45   0
  -4  -8   5   32.35   29.31   0
  -4  -4   8  539.83   28.59   0
  -3   6   6  604.59   37.83   0
  -2   1   7 2369.45   45.40   0
  -2   5   5   69.61   23.59   0
  -6   1  11  268.89   27.76   0
  -5  -4   9  270.98   24.92   0
  -5   4  10  533.02   30.07   0
  -4  -7   6  197.21   29.02   0
  -4  -2   9  712.44   31.91   0
  -3  -4   7 1256.33   37.75   0
  -2  -3   6    5.46   16.25   0
  -2   0   7 1234.52   33.92   0
  -2   2   7  111.24   17.01   0
  -1   3   4 9641.41  118.73   0
   0  -3  -4    6.96   20.86   0
  -6   3  11  115.43   26.73   0
  -5  -2  10  444.98   29.92   0
  -4 -10   3  373.90   42.16   0
  -3  -2   8  847.45   31.03   0
  -1   0   5  155.03   18.83   0
  -1   1   5 1923.03   45.39   0
  -5  -6   8  488.75   34.04   0
  -5   6   9  786.05   40.75   0
  -4  -6   7  799.62   35.60   0
  -4   6   8  566.49   34.65   0
  -2  -7   3 1688.93   48.51   0
  -2  -6   4  912.45   37.75   0
  -2   3   7  707.31   28.32   0
  -1  -7   0  116.18   31.12   0
  -1  -3   4 1761.44   43.28   0
   0  -1  -3   75.55   19.11   0
  -6   4  11   55.43   26.26   0
  -5   7   8  554.07   39.89   0
  -4  -3   9  289.42   24.95   0
  -4   1  10  113.23   21.94   0
  -4   2  10  173.60   21.45   0
  -3  -8   4  454.42   37.15   0
  -3  -7   5   56.62   25.91   0
  -3   1   9   21.29   19.23   0
  -1  -1   5 1145.00   35.01   0
  -4   0  10  886.60   32.69   0
  -3  -6   6  933.64   38.84   0
  -3   0   9  456.31   26.97   0
  -1   2   5 2393.08   51.44   0
  -6   6  10  439.43   37.61   0
  -5  -3  10   68.56   25.52   0
  -5   0  11  497.18   29.16   0
  -5   1  11  224.25   22.56   0
  -3  -3   8  580.88   27.97   0
  -3   3   9 1529.05   37.23   0
  -2  -2   7  729.30   28.57   0
  -5   3  11  436.35   28.24   0
  -4  -1  10  496.01   30.22   0
  -4   4  10  463.91   29.61   0
  -4   7   7  723.81   41.22   0
  -3   5   8  696.56   32.28   0
  -2   5  -1 1621.98   70.20   0
   0  -2  -3 1928.64   66.66   0
  -6   5  11  464.90   31.47   0
  -5  -9   6  210.81   34.28   0
  -5  -8   7  304.84   33.92   0
  -5  -1  11  133.44   25.48   0
  -3  -1   9 1381.26   36.42   0
  -3   6   7 1107.11   41.16   0
  -1  -2   5 4515.95   63.78   0
  -5   4  11  343.87   28.00   0
  -4  -8   6  674.08   37.87   0
  -4  -4   9   35.02   24.40   0
  -2   1   8   90.30   18.00   0
  -2   2   8 1946.20   40.83   0
  -2   5   6 1545.27   46.46   0
  -1  -5   3 1448.92   44.28   0
   0  -3   0 4055.25  124.90   0
  -5  -7   8   37.82   26.50   0
  -5   6  10  114.61   31.72   0
  -4  -9   5  291.24   38.26   0
  -4  -2  10    9.74   22.51   0
  -4   6   9  101.55   27.56   0
  -3 -10   2  316.75   38.98   0
  -2  -3   7 1422.09   37.85   0
  -2   0   8  773.62   28.51   0
  -1   3   5   -0.19   16.87   0
   0  -3  -2  532.67   59.28   0
  -5   7   9  488.24   39.22   0
  -3  -4   8   17.19   21.54   0
  -3  -2   9   21.40   20.88   0
  -2  -9   1  160.87   33.26   0
  -1   0   6 3769.84   57.09   0
  -1   1   6  878.78   30.91   0
  -5   5  11   20.50   25.11   0
  -4  -6   8   41.19   26.90   0
  -4   1  11  454.38   26.44   0
  -4   2  11  665.55   28.34   0
  -4   5  10   57.68   24.22   0
  -2   3   8  777.11   28.04   0
  -1  -3   5  674.39   28.71   0
  -6   6  11  122.23   34.99   0
  -4  -3  10  500.72   27.76   0
  -4   0  11    4.50   21.68   0
  -4   7   8  198.82   32.72   0
  -3   1  10  775.53   31.55   0
  -3   2  10  828.44   30.31   0
  -3   7   5   24.05   35.71   0
  -2  -7   4   27.14   24.72   0
  -2  -6   5  637.65   32.57   0
  -1  -1   6  802.23   29.70   0
  -1   2   6   16.29   14.71   0
  -5   1  12  147.85   23.32   0
  -3  -8   5  771.09   40.44   0
  -3  -6   7   14.32   26.18   0
  -3   0  10   98.64   22.21   0
  -3   3  10  125.04   21.75   0
  -3   5   9  382.35   27.13   0
  -5   3  12  177.39   24.71   0
  -4  -1  11  728.29   32.21   0
  -4   4  11  177.42   25.39   0
  -3   6   8  138.30   24.16   0
  -2  -2   8  367.49   25.66   0
  -1  -7   1 1597.88   55.85   0
  -6   5  12   63.74   26.75   0
  -3  -9   4   59.99   34.71   0
  -2   5   7  455.16   28.03   0
  -2   6   4  499.13   51.34   0
  -1  -2   6  466.85   24.58   0
  -5   4  12    5.84   23.38   0
  -2   1   9 1742.04   38.82   0
  -2   2   9  150.24   19.52   0
  -1  -8  -1  727.35   62.75   0
  -1   3   6 1451.33   40.05   0
   0  -1   2  218.89   24.37   0
  -5   7  10  120.66   33.87   0
  -4  -8   7   55.21   28.79   0
  -4  -2  11  582.55   29.89   0
  -3   7   6 1661.28   59.36   0
  -1  -5   4  411.82   28.07   0
  -4  -9   6  144.97   36.57   0
  -4  -7   8  273.06   32.34   0
  -4   5  11  673.92   32.83   0
  -2  -3   8  244.94   23.59   0
  -2   3   9   76.78   17.34   0
  -2   6   5 1621.98   60.93   0
  -1   0   7  843.38   29.25   0
  -1   1   7  117.17   17.31   0
   0  -2   2 2218.82   60.93   0
   0   0   2 3062.60   79.76   0
  -5   5  12  399.69   30.34   0
  -4  -6   9  208.79   30.43   0
  -4   1  12  296.44   24.46   0
  -4   2  12   14.88   18.57   0
  -4   7   9  309.19   33.05   0
  -3   6   0  935.45   70.01   0
  -2  -9   2 1264.66   53.06   0
  -2  -1   9   73.69   21.39   0
  -2   5   0   10.28   38.69   0
  -1   2   7 1583.54   37.95   0
  -6   6  12   35.36   30.36   0
  -4   0  12  381.06   28.42   0
  -3   1  11  519.84   27.97   0
  -3   2  11  144.94   21.10   0
  -3   5  10  924.24   35.21   0
  -2  -6   6   57.49   25.72   0
  -1  -3   6 2405.93   46.41   0
  -1  -1   7 1236.62   34.23   0
  -4  -3  11   12.31   20.89   0
  -3  -7   7  313.99   32.75   0
  -3   3  11 1127.67   33.16   0
  -3   7   7   14.83   27.31   0
  -2  -7   5  786.09   38.28   0
  -2  -5   7  306.71   29.54   0
  -4  -5  10   19.34   25.27   0
  -4  -1  12   44.66   24.04   0
  -4   4  12  361.56   28.08   0
  -3  -8   6  -13.53   30.52   0
  -3  -6   8  414.86   34.26   0
  -3  -3  10  198.81   23.41   0
  -2  -2   9  845.54   32.43   0
  -2   6   6  570.50   36.92   0
  -1  -7   2 1518.60   51.34   0
  -4   6  11  300.73   30.75   0
  -3  -1  11  112.02   24.10   0
  -2  -8   4  538.02   39.56   0
  -2   1  10  189.84   22.62   0
  -1  -2   7 1173.09   33.44   0
  -1   3   7 1484.28   37.74   0
  -5   6  12  312.32   29.88   0
  -5   7  11  455.69   37.56   0
  -3  -9   5  279.48   38.27   0
  -3  -5   9  164.92   27.99   0
  -2   0  10 1211.23   36.07   0
  -2   2  10  381.85   24.71   0
  -1  -7  -5  579.78   46.18   0
   0  -2   3  713.30   32.51   0
  -4   5  12    1.52   25.69   0
  -4   7  10  679.79   38.08   0
  -2   3  10 2101.72   42.12   0
  -1  -8   0 1121.11   58.72   0
  -1   0   8 1011.12   31.38   0
  -1   1   8 2381.65   44.15   0
  -5   5  13  220.89   26.93   0
  -4  -8   8  198.52   32.97   0
  -3  -2  11  128.64   22.30   0
  -3   6  10  379.30   30.84   0
  -3   7   8 1079.75   44.37   0
  -2   6   7  552.67   33.88   0
  -1  -6   4  299.57   28.40   0
  -1   2   8  503.05   24.55   0
  -4  -9   7  230.09   37.26   0
  -3   1  12  137.05   22.66   0
  -3   2  12  461.22   26.10   0
  -3   5  11    4.65   21.41   0
  -2   5   9 1067.82   35.55   0
  -1  -3   7  114.10   19.03   0
  -1  -1   8   22.37   16.78   0
   0  -1   4  912.90   33.80   0
   0   0   4 1894.55   47.15   0
   0   1   3   85.00   19.13   0
  -3   0  12  140.88   24.28   0
  -3   3  12  294.73   25.57   0
  -2  -9   3   -2.88   31.38   0
  -2  -6   7  818.84   37.39   0
  -1   3   8 1341.34   35.58   0
   0  -3   3 1838.10   49.59   0
   0   1   2 3245.78   89.31   0
  -4   4  13    0.56   23.98   0
  -3  -3  11  530.30   29.87   0
  -2  -7   6  343.29   34.09   0
  -2  -5   8  425.81   30.26   0
  -2  -2  10   58.20   20.57   0
  -1   4   7   37.69   16.41   0
   0  -2   4 2937.95   56.32   0
  -5   6  13   63.06   27.85   0
  -5   7  12    7.16   32.83   0
  -4   6  12  233.00   28.33   0
  -4   7  11   10.01   29.70   0
  -3  -8   7  403.49   37.97   0
  -3  -7   8   32.44   27.80   0
  -3  -6   9  157.01   29.23   0
  -3   7   9  489.74   35.53   0
  -2   2  11  908.72   31.70   0
  -2   6   8 2862.67   58.16   0
  -3  -1  12  487.43   27.95   0
  -2  -8   5  211.30   34.74   0
  -2   1  11  473.12   25.51   0
  -1   1   9  181.52   20.02   0
   0   0   5 6100.83   76.86   0
  -4   5  13  279.98   27.17   0
  -3  -9   6  251.24   38.81   0
  -3  -5  10  445.18   32.22   0
  -3   6  11  431.22   29.29   0
  -2   0  11   34.88   22.61   0
  -2   3  11  370.97   24.14   0
  -2   5  10  122.97   23.62   0
  -1  -8   1    8.00   29.59   0
  -1  -5   6   18.10   22.08   0
  -1   0   9 1444.46   36.02   0
  -1   2   9 1533.71   36.94   0
   0  -1   5 1683.85   41.23   0
  -3  -2  12  198.39   24.17   0
  -3   5  12  639.74   31.76   0
  -1  -6   5  291.24   27.91   0
  -1   4   8 1659.81   40.05   0
   0  -3   4 1098.91   37.09   0
   0   1   5  114.60   16.38   0
  -3   2  13   29.71   18.52   0
  -2  -1  11  349.42   26.21   0
  -1  -3   8 1604.66   38.92   0
  -1  -1   9 1117.26   33.84   0
  -1   3   9 2699.26   46.94   0
   0  -2   5  405.89   23.42   0
  -3   3  13  227.09   24.60   0
  -3   7  10  109.84   30.58   0
  -2   6   9   -2.03   21.36   0
  -1   5   5 3098.47   73.89   0
   0   0   6   40.77   15.89   0
  -4   6  13  644.99   32.73   0
  -4   7  12  674.61   40.29   0
  -3   0  13  309.34   26.40   0
  -2  -7   7  426.12   35.10   0
  -2  -6   8   41.21   28.24   0
  -2  -5   9  454.94   33.00   0
  -1  -7  -4 1336.29   70.55   0
  -1  -2   9  112.48   22.04   0
  -1   5   6  937.90   39.16   0
   0   1   6 1165.31   34.87   0
  -3  -7   9  265.13   31.62   0
  -2   2  12    5.86   20.47   0
  -1  -8   2  863.74   45.00   0
  -1   1  10 1004.54   32.36   0
   0   2   5  486.20   26.82   0
  -3  -8   8   35.71   32.10   0
  -3   6  12  431.53   30.44   0
  -2   0  12  683.43   31.24   0
  -2   3  12  676.84   28.39   0
  -2   5  11 1034.71   35.64   0
  -1   0  10   32.01   20.03   0
  -1   2  10 1247.24   33.75   0
  -1   4   9   39.90   16.16   0
   0  -5   1 2909.77   77.73   0
   0   2   3 2136.82   64.12   0
  -3   5  13  139.49   25.61   0
  -2  -8   6  521.76   38.88   0
  -2   6  10 1311.23   40.48   0
  -1  -6   6  504.52   33.88   0
  -1   3  10   31.42   17.21   0
   0  -2   6  684.97   27.72   0
   0   2   6 2358.09   48.20   0
  -3   6   1  249.42   53.37   0
  -3   7  11  760.25   39.71   0
  -2  -1  12   39.31   22.81   0
  -1  -1  10  306.55   25.71   0
   0  -5   0   32.61   31.28   0
   0   0   7 1363.35   35.78   0
   0   1   7 1514.14   37.11   0
  -3   3  14  393.08   28.16   0
   0  -1   7    7.01   16.13   0
  -4   6  14    8.87   24.56   0
  -4   7  13   34.84   30.24   0
  -1  -7   5   12.58   29.99   0
  -1   4  10 1000.45   31.75   0
   0   2   7   27.45   15.50   0
  -3   6  13   97.68   25.82   0
  -3   8   8  773.68   50.22   0
  -2  -6   9  438.64   33.92   0
  -2  -5  10   19.32   28.39   0
  -2  -2  12  145.60   22.73   0
  -2   5  12  138.34   24.86   0
  -2   6  11  211.63   25.80   0
  -2   7   8  107.57   31.13   0
  -1  -8   3  463.20   36.55   0
  -1  -2  10  778.32   30.50   0
  -1   2  11    2.71   20.19   0
  -3   7  12    9.75   28.90   0
  -2  -7   8  567.72   35.60   0
  -2   1  13  184.09   24.20   0
  -2   3  13  304.04   23.43   0
  -1   0  11 1308.48   36.56   0
  -1   3  11  490.93   26.17   0
   0  -2   7  701.74   28.10   0
   0   0   8  711.47   27.60   0
   0   1   8  230.77   19.94   0
  -3   5  14  196.52   26.59   0
  -3   8   9   56.04   32.44   0
  -2  -4  11  239.41   27.70   0
  -2   0  13  164.95   25.56   0
  -2   7   6   33.57   34.48   0
  -2   7   9 1428.01   48.40   0
  -1  -5   8  401.73   31.25   0
  -1  -4   9  505.90   31.10   0
   0   3   5 3515.97   65.89   0
   0   3   6  489.05   25.97   0
  -2  -8   7    7.23   32.66   0
  -1  -6   7    2.31   25.27   0
  -1  -1  11  210.30   24.79   0
   0  -5   4 2730.53   57.63   0
   0  -1   8 1607.46   38.00   0
   0   2   8 2877.18   49.11   0
  -2  -1  13  337.19   27.50   0
   0   3   7 2089.18   44.49   0
  -4   7  14  290.88   31.91   0
  -2   5  13  574.51   31.46   0
  -2   7  10  711.06   37.04   0
  -1  -7   6  861.42   42.97   0
  -1   2  -1   41.80   25.23   0
   0  -2   8  394.87   25.45   0
   0   1   9 1535.81   36.47   0
   0   3   4   13.08   16.43   0
  -3   6  14  458.18   30.33   0
  -3   7  13  359.13   31.37   0
  -1  -2  11   80.33   21.09   0
  -1   1  12  607.17   30.56   0
  -1   3  12  152.30   22.04   0
   0   0   9  718.19   27.94   0
   0   2   9 1537.24   36.70   0
   0   3   8 1713.00   39.32   0
  -3   8  11  117.55   33.01   0
  -2  -6  10  150.84   28.63   0
  -2   2  14   98.31   22.42   0
  -2   3  14   68.89   19.95   0
  -1  -6  -4 2930.13   83.78   0
  -1   0  12   38.89   22.93   0
  -1   6   7 1911.27   53.18   0
  -1   6   8  113.43   23.71   0
   0  -5   5  316.97   29.19   0
   0   2   2 1578.28   72.79   0
  -2  -7   9   19.27   28.57   0
  -2   7  11  131.54   28.28   0
  -1  -9   0  717.95   62.33   0
  -1  -5   9  187.86   29.47   0
   0  -1   9  191.42   22.76   0
  -1  -4  10   70.23   25.38   0
  -1  -1  12  580.58   27.74   0
  -1   4  12  236.82   21.72   0
  -1   6   9 1652.24   45.30   0
   0  -6   1  515.22   40.57   0
   0  -6   2 2232.61   61.82   0
   0   3   9  506.71   25.53   0
  -2  -8   8  275.27   38.73   0
  -2   6  13  470.49   31.25   0
  -1   6   6 1234.15   50.45   0
   0  -2   9 1724.43   40.42   0
   0   1  10  122.72   21.00   0
   0   2  10  345.72   22.51   0
   0   4   7 2197.40   47.66   0
  -3   7  14  127.85   28.51   0
  -3   8  12  333.40   36.87   0
  -2   5  14  441.42   29.07   0
  -1  -9   2  131.99   37.16   0
  -1  -7   7  672.88   41.53   0
  -1   2  13   43.51   21.58   0
  -1   6  10   50.66   21.75   0
   0   0  10 1085.32   32.99   0
   0   4   6 1240.18   40.79   0
   0   4   8   35.20   17.06   0
  -1  -5  -4  296.63   34.29   0
  -1  -2  12  389.26   27.26   0
  -1   3  13  495.23   25.57   0
   0  -1  10 1121.20   34.60   0
   0   3  10 1442.89   35.99   0
  -1  -1  -3 2497.97   67.97   0
  -1   0  13  426.64   27.04   0
  -1   4  13  602.10   28.08   0
   0   4   9 4359.57   59.63   0
  -3   8  13  296.29   35.22   0
  -1  -5  10  609.16   36.09   0
  -1   6  11  716.65   34.05   0
   0  -4   8  530.43   32.54   0
   0   1  11  937.22   33.16   0
   0   2  11 1076.74   33.62   0
  -2   6  14    4.35   23.57   0
  -1  -6   9   63.82   27.75   0
  -1  -4  11  251.55   30.30   0
  -1  -1  13    6.73   20.43   0
   0  -2  10    8.30   19.59   0
   0   0  11   22.12   20.54   0
   0   4   5 2873.66   65.31   0
   0   4  10  389.99   24.98   0
  -2   5  15   20.67   24.09   0
  -2   7  13    1.43   25.34   0
  -1  -8   6   -3.22   34.58   0
   0  -6   0 1679.08   77.16   0
   0  -6   5  839.16   37.97   0
   0  -5   7  251.83   27.83   0
   0   3   3 2435.83   76.92   0
   0   3  11    0.60   19.66   0
  -1  -7   8  151.53   34.07   0
  -1   1  14   11.95   23.48   0
  -1   2  14  634.11   30.12   0
  -1   3  14  439.45   25.09   0
  -1   6  12  272.18   27.63   0
  -3   8  14   51.84   33.77   0
  -2   8   9 1122.11   48.16   0
  -2   8  10   26.74   31.06   0
  -1   4  14   20.06   21.09   0
   0   4  11  665.83   29.12   0
  -2   6  15  270.78   28.27   0
   0  -6   6  367.82   32.89   0
   0  -4   9    5.50   25.27   0
   0   1  12  531.26   30.47   0
   0   2  12    5.58   19.86   0
  -2   7  14  378.45   29.97   0
  -2   8   8  766.29   49.56   0
  -1  -5  11   19.06   27.83   0
  -1   7   9  797.33   38.92   0
  -1   7  10  798.35   36.97   0
   0  -5   8  419.60   31.66   0
   0  -2  11  712.56   30.99   0
   0   0  12  743.75   31.21   0
   0   3  12  541.71   27.19   0
   1  -1   5 2270.64   47.93   0
   1  -1   6  158.73   18.85   0
   1   0   6 2894.39   51.63   0
  -2   3  -1  109.44   32.41   0
  -2   8  12  322.08   36.09   0
  -1  -8   7  601.81   42.10   0
  -1  -6  10  267.56   29.96   0
  -1   6  13  236.74   26.47   0
   0  -7   3 1113.73   47.81   0
   1  -2   5 1022.11   34.27   0
   1   0   5   90.13   16.67   0
   1   0   7  114.64   16.87   0
   1   1   7 1824.42   40.56   0
  -1   7   8 1620.44   52.53   0
   0  -7   2  456.39   39.19   0
   0  -1  12   40.87   20.15   0
   0   4  12  625.09   27.74   0
   1  -2   4  144.68   20.36   0
   1  -2   6  412.76   23.95   0
   1  -1   4 3733.94   64.35   0
   1   0   8 1158.01   33.76   0
   1   1   6 1893.53   42.67   0
  -2   8  13  161.67   33.15   0
  -1  -7   9  402.28   40.57   0
  -1   4  15  280.35   26.39   0
   0  -6   7  874.30   40.07   0
   1  -1   8   40.84   18.01   0
  -2   7  15  268.03   27.92   0
  -1   6  14  662.83   32.99   0
  -1   7  12   19.07   23.92   0
   0  -4  10  606.14   33.53   0
   0  -3  11   41.41   24.62   0
   0   1  13  120.24   23.65   0
   0   3  13  395.61   26.47   0
   0   4   4 4158.33   92.89   0
   1   0   4 4616.92   72.66   0
   1   0   9  585.36   27.14   0
   1   1   5 4912.16   70.77   0
   1   1   9   35.23   17.42   0
   1   2   7 2357.32   46.81   0
   1   2   8  151.26   19.51   0
  -1   0  -2  424.18   35.35   0
   0  -7   1  496.16   44.41   0
   0  -5   9  366.70   32.89   0
   0   0  13  115.91   22.92   0
   0   4  13    0.99   20.15   0
   1   2   9 1377.97   35.93   0
  -1   7   7  112.70   31.18   0
  -1   7  13  992.48   38.56   0
   1  -2   3 2461.01   57.92   0
   1  -2   8 1121.36   33.64   0
   1   2   6   14.57   14.57   0
  -2   8  14  415.21   35.96   0
   0  -6   8   11.36   29.13   0
   0  -1  13  526.09   28.07   0
   1  -1   3   52.81   17.06   0
   1   0  10  458.88   26.74   0
   1   1  10 1735.40   39.74   0
  -1   6  15   52.25   26.19   0
   0  -7   6  144.42   33.73   0
   0   1  14  375.18   27.47   0
   0   2  14  171.04   24.69   0
   0   3  14  140.93   22.52   0
   0   6   9   75.10   20.79   0
   0   6  10  636.19   29.21   0
   1   3   8  531.85   25.98   0
   1   3   9  969.53   31.94   0
  -3   6   2 1803.07   95.59   0
  -1   7  14  125.42   28.38   0
   0  -4  11  146.98   27.59   0
   0  -3  12  494.24   32.70   0
   0   4  14  712.27   29.86   0
   0   6  11  571.16   30.68   0
   1  -4   5  112.40   22.58   0
   1  -1  10  544.41   28.08   0
   1   1   4 2494.38   56.46   0
   1   2   5 5488.02   77.69   0
   1   3   7  343.35   23.21   0
   1   3  10   11.50   17.30   0
  -2   8  15   -1.42   30.53   0
   0  -5  10  121.80   27.27   0
   0   6   8 1623.62   46.25   0
   0   6  12  281.53   27.49   0
   1  -4   4 2517.50   55.37   0
   1  -4   6 1226.42   38.74   0
   1   1  11  130.87   22.26   0
   1   2  11  149.16   23.30   0
   0  -7   7  298.83   38.12   0
   1  -4   7  835.78   36.42   0
   1   0   3 2951.58   65.51   0
   1   0  11  620.17   28.78   0
   1   3  11 1388.42   36.96   0
  -1   8  11   39.79   30.97   0
   0  -6   9  543.04   35.17   0
   1  -1  11  311.40   25.26   0
   1   3   6 1440.02   40.69   0
  -1  -6  -3  372.40   42.23   0
  -1  -3  -3  313.74   33.77   0
  -1   7  15  199.68   28.56   0
  -1   8  12  704.13   39.52   0
   0   6  13  929.62   35.01   0
   1   1  12  335.51   25.97   0
   1   4   9  336.05   22.66   0
   1   4  10 1225.77   35.24   0
   0  -8   3  430.04   41.36   0
   0  -8   4  322.82   38.56   0
   0  -5  11  314.20   32.39   0
   0   4  15   56.59   20.53   0
   0   6   7  538.74   34.62   0
   1  -4   8  -13.82   25.23   0
   1   0  12   16.43   21.25   0
   1   3  12  419.70   26.94   0
   1   4  11  730.38   29.83   0
   0  -7   8  302.20   37.91   0
   0   6  14   60.35   24.33   0
   1  -5   5 2153.97   52.57   0
  -1   1  -1  136.81   33.15   0
  -1   8   9   73.99   31.21   0
  -1   8  14  152.07   28.40   0
   0  -6  10  178.00   31.29   0
   0   7  11   45.10   25.15   0
   1  -5   6  113.35   25.76   0
   1  -2   2 2995.14   70.87   0
   1  -1  12  476.32   28.19   0
   1   2  13   10.22   22.78   0
   1   4   7  279.45   21.81   0
   1   4  12  255.12   24.94   0
   0   7  10 1347.18   43.87   0
   1  -4   9 1091.79   40.25   0
   1   1  13  531.65   28.88   0
   1   3  13  350.53   26.53   0
   0   7  13   59.19   25.65   0
   1   0  13  426.70   25.93   0
   1   2   4 2245.74   55.44   0
   1   3   5  286.75   25.19   0
   1   4  13 1180.14   35.88   0
   1   5  10 1451.75   37.78   0
   1   5  11  338.61   24.60   0
  -1  -5  -3 3080.49   90.70   0
  -1   8  15  443.72   32.24   0
   0   6  15  441.73   29.91   0
   1   5   9  306.29   23.44   0
   0  -7   9   47.74   35.23   0
   0   7  14  658.06   35.05   0
   1  -5   8  224.26   29.49   0
   1  -4  10   19.30   28.35   0
   1  -1  13    4.17   24.48   0
   1   1   3 2460.23   63.03   0
   1   2  14  424.80   28.95   0
   1   3  14  443.16   27.30   0
  -3   5   1  838.96   61.01   0
   1   1  14   10.43   22.45   0
   1   4   6 2479.53   54.88   0
   1   4  14   32.50   20.03   0
   1   5   8  934.05   34.59   0
   1   5  13  279.45   25.25   0
  -1  -1  -2 3323.47   93.05   0
   0   6   6  469.41   36.95   0
   0   7  15  184.11   28.94   0
   1  -6   6 1105.68   46.39   0
   1  -5   9  339.09   33.27   0
   1  -3  12   62.82   26.16   0
   2   0   8  641.55   27.96   0
  -1   9  13    5.04   35.24   0
   0   7   8  143.66   27.85   0
   1  -4  11  442.80   33.90   0
   1   5  14  413.40   27.71   0
   2  -1   7   45.31   18.38   0
   2  -1   8 1618.04   39.86   0
   2   0   7 2065.80   43.98   0
   2   0   9  506.95   28.19   0
   2   1   8  360.86   24.17   0
   2   1   9 2404.92   45.05   0
   2   1  10  135.09   22.56   0
  -1   9  14  525.97   40.29   0
   1  -6   7   49.74   31.93   0
   1   4  15  496.94   27.69   0
   2  -1   9   56.89   20.96   0
   2   0  10  918.54   33.04   0
   2   1   7 2278.59   45.97   0
   2   2   9  619.63   27.95   0
   2   2  10  566.47   28.54   0
  -1   9  11  203.76   36.69   0
   0   8  12  190.04   30.62   0
   0   8  13  520.88   34.80   0
   1  -5   2 1222.75   50.23   0
   1  -5  10  544.58   35.45   0
   1   5   7 1414.13   43.96   0
   2  -1   6 2227.70   46.47   0
   2  -1  10  670.64   30.11   0
   2   1  11  622.15   29.67   0
   2   2   8 1520.76   38.28   0
   2   2  11  733.45   32.24   0
  -1   9  15  197.34   37.16   0
   0   8  11 1016.33   43.67   0
   0   8  14  465.71   34.32   0
   1  -6   8  642.74   41.65   0
   1   5  15  374.98   27.91   0
   2   0   6   10.19   16.54   0
   2   0  11   17.75   20.71   0
   2   3  11  231.96   24.84   0
   1   0   2  430.94   33.58   0
   2  -1  11  303.34   26.78   0
   2   1  12  217.18   25.18   0
   2   2   7  219.37   20.68   0
   2   2  12   76.47   24.85   0
   2   3   9  103.62   18.54   0
   0   8  15   86.93   28.21   0
   2  -3   7  778.13   34.16   0
   2  -3   8   43.60   26.43   0
   2   0  12  581.19   29.11   0
   2   3   8  797.45   30.73   0
   2   3  12  726.09   31.44   0
   2  -1   5 2200.63   47.76   0
   2   1  13  247.79   25.19   0
   2   2  13  638.16   32.37   0
   2   3  13  362.77   29.25   0
   2   4  10  306.57   24.00   0
   2   4  11  431.37   28.13   0
  -5  -8 -13  214.29   31.26   0
  -5  -6 -10    5.68   25.53   0
  -5  -5  -9  329.69   30.88   0
  -5  -2  -7 1885.11   52.08   0
  -5   2  -7  422.55   46.14   0
  -4  -8 -10   13.44   31.37   0
  -4  -4  -6  392.69   29.67   0
  -3  -3  -4 2569.12   61.36   0
  -3  -1  -3 5389.55   94.79   0
   2  -9  -7   61.27   44.56   0
  -6  -3 -11    6.74   31.83   0
  -5  -7 -11  413.09   34.06   0
  -2 -11 -12  318.51   41.45   0
  -1 -11 -11  172.20   41.82   0
   0  -8  -6 2509.85   70.36   0
  -4 -10 -13   26.07   30.96   0
  -4   1  -4  304.78   35.71   0
  -4   2  -4 2996.02   82.35   0
  -3  -7  -7   50.17   25.54   0
  -2  -7  -6  127.77   27.49   0
  -1 -12 -13   30.93   39.40   0
   4  -1   0 1057.44   66.37   0
  -6  -5 -12   26.20   31.39   0
  -6  -4 -11  302.00   36.81   0
  -5  -8 -12  636.13   35.76   0
  -4  -9 -11  457.74   37.38   0
  -3 -10 -11  733.99   38.62   0
  -3  -8  -8 1073.59   43.31   0
  -3  -6  -6 1056.69   39.77   0
  -2  -8  -7  721.86   38.84   0
  -2  -6  -5 2856.57   64.84   0
  -1 -10  -9  707.06   47.51   0
  -6  -6 -13  201.68   31.57   0
  -6  -2 -10  347.49   39.65   0
  -6  -1 -10   10.70   39.66   0
  -4   0  -4 1628.70   54.38   0
   0 -12 -12   12.04   47.87   0
   0 -11 -10   31.87   46.50   0
   0  -9  -7  311.25   40.24   0
   2   1   1 1598.95   69.49   0
  -5  -9 -13  168.15   33.88   0
  -5  -7 -10  498.60   35.40   0
  -5  -6  -9  726.13   36.47   0
  -5   0  -6 1552.36   53.81   0
  -4  -7  -8   93.40   27.53   0
  -4  -3  -5 3191.27   62.44   0
  -3  -9  -9  741.21   40.15   0
  -3  -5  -5 1542.03   46.94   0
  -1  -3  -2   44.07   23.16   0
  -5  -8 -11    7.09   29.34   0
  -5  -5  -8  271.77   28.96   0
  -5  -1  -6  340.06   33.80   0
  -5   1  -6  827.86   47.78   0
  -4 -10 -12  977.02   43.26   0
  -4  -8  -9  406.65   36.15   0
  -4  -6  -7  788.96   36.50   0
  -2 -12 -13  432.48   44.50   0
  -2 -11 -11  821.97   48.37   0
  -6  -4 -10   97.69   29.23   0
  -4   3  -4  893.28   60.61   0
   1   2   1   41.72   22.29   0
  -6  -2  -9  109.71   33.60   0
  -5  -9 -12  471.75   36.85   0
  -4  -9 -10  827.03   42.77   0
  -4  -5  -6 1915.34   49.92   0
  -3 -10 -10  130.44   33.57   0
  -1 -11 -10 1183.50   53.18   0
  -6  -3  -9  248.89   33.69   0
  -6   0  -9  372.47   46.71   0
  -5  -2  -6  145.60   26.27   0
  -3  -4  -4   85.54   22.75   0
  -3  -2  -3 1371.81   47.71   0
  -1  -9  -7 1513.05   53.84   0
   0 -10  -8  718.24   49.19   0
  -5   2  -6   33.55   36.26   0
  -4 -11 -13  142.90   32.24   0
  -6  -4  -9  927.48   43.20   0
  -5 -10 -13  514.78   36.98   0
  -5  -8 -10  716.72   38.67   0
  -5  -7  -9  176.46   29.99   0
  -5  -6  -8  526.39   34.22   0
  -4 -10 -11   83.98   30.45   0
  -3 -12 -13   22.97   36.76   0
  -2 -12 -12   92.76   39.58   0
  -2  -2  -2  914.73   44.77   0
   0 -12 -11  490.20   55.66   0
  -4  -4  -5  302.31   27.02   0
  -2 -11 -10   36.13   38.76   0
  -2  -4  -3  411.49   31.96   0
  -1 -10  -8  694.99   47.50   0
  -6  -7 -11  355.27   31.48   0
  -6  -2  -8 1005.82   45.30   0
  -6  -1  -8  301.47   38.71   0
  -5  -9 -11  473.85   39.10   0
  -5  -5  -7 1257.86   41.38   0
  -4  -2  -4 1597.44   46.54   0
  -3  -8  -7 2615.83   59.39   0
  -3  -7  -6 2060.48   52.62   0
  -3   2  -2 1554.15   72.20   0
  -1 -13 -13  134.57   43.54   0
  -1 -12 -11  133.11   42.58   0
  -6  -8 -12   42.33   25.00   0
  -4 -11 -12  324.35   32.87   0
  -4  -8  -8  672.36   37.96   0
  -4  -7  -7 1238.85   42.53   0
  -3  -9  -8    8.43   28.36   0
   0 -11  -9  942.91   57.58   0
   1   3   1 1307.29   54.20   0
  -6  -3  -8  407.72   34.50   0
  -6   0  -8  277.14   39.52   0
  -5 -10 -12   14.81   32.15   0
  -4  -9  -9   -6.71   29.72   0
  -3  -6  -5  417.64   30.70   0
  -2  -8  -6 1380.83   47.68   0
  -4  -6  -6  557.74   32.52   0
  -3 -12 -12  620.32   45.73   0
  -2  -7  -5 1465.88   46.99   0
  -1 -11  -9    9.82   35.91   0
   2   2   1 5262.65   97.68   0
  -7  -4 -12  173.60   34.24   0
  -7  -3 -12   25.81   37.96   0
  -6  -4  -8   50.81   28.92   0
  -5  -8  -9   91.88   29.37   0
  -5  -4  -6 1101.55   39.75   0
  -5   0  -5   55.00   28.87   0
  -2 -13 -13  295.17   41.71   0
  -2 -12 -11  462.35   47.69   0
   1  -8  -5 2499.86   75.43   0
  -7  -5 -12  434.54   36.17   0
  -6  -8 -11  607.49   33.88   0
  -6  -7 -10  195.74   27.24   0
  -6  -6  -9   29.17   25.92   0
  -5  -9 -10  135.05   34.88   0
  -5  -7  -8 1690.32   48.43   0
  -5  -1  -5  711.51   37.68   0
  -3  -3  -3 3137.34   66.19   0
  -3   3  -2  399.15   57.97   0
  -1   6  -1 2184.13   77.24   0
   1  -7  -4 2216.26   74.96   0
  -7  -4 -11   88.66   30.60   0
  -7  -3 -11  508.23   41.89   0
  -6  -9 -12  185.47   31.53   0
  -5  -6  -7  614.92   34.01   0
  -5   1  -5  179.97   34.07   0
  -4 -11 -11  659.74   38.45   0
  -4  -5  -5  129.47   23.64   0
  -4  -3  -4   23.62   18.59   0
  -3   0  -2  963.85   47.35   0
  -2  -6  -4  462.76   32.39   0
  -1 -13 -12   83.30   41.31   0
   0 -12 -10  281.00   51.68   0
   0  -9  -6  976.47   49.64   0
   0  -8  -5   26.45   30.40   0
   1  -9  -6  235.09   41.92   0
  -7  -6 -12  126.57   30.14   0
  -6  -1  -7  714.66   44.41   0
  -5 -10 -11  730.16   40.57   0
  -3  -5  -4  309.15   27.38   0
   2  -7  -4  867.19   63.09   0
   4  -2  -1 3351.03   98.76   0
  -7  -5 -11   95.19   30.72   0
  -6  -2  -7   54.74   28.21   0
  -1 -12 -10  330.20   47.33   0
  -7  -7 -12   66.58   29.85   0
  -6   0  -7  824.72   46.63   0
  -5 -11 -12  372.02   37.62   0
  -3 -12 -11  252.93   40.13   0
  -2 -13 -12  509.17   47.03   0
   1 -10  -7   71.49   37.57   0
  -7  -6 -11  723.70   39.24   0
  -7  -4 -10  460.00   37.09   0
  -7  -3 -10  155.88   32.35   0
  -7  -2 -10  120.66   38.64   0
  -6  -9 -11  174.77   28.82   0
  -6  -8 -10   92.88   26.89   0
  -6  -7  -9  770.87   35.99   0
  -5  -5  -6   96.60   22.64   0
  -4 -10  -9  562.79   37.14   0
  -4  -8  -7  212.51   27.65   0
  -4   0  -3  672.22   39.17   0
  -4   1  -3 2795.58   72.83   0
  -1  -9  -6  477.52   37.84   0
   1  -6  -3   32.20   31.31   0
  -5  -9  -9 1053.34   46.05   0
  -5  -8  -8  508.96   36.35   0
  -5   2  -5  514.53   45.52   0
  -4  -7  -6  339.07   29.22   0
  -3  -8  -6   75.03   25.00   0
  -2 -12 -10  393.42   45.15   0
  -2  -3  -2 3684.50   76.96   0
  -2   0  -1  607.66   45.68   0
  -1 -10  -7   24.92   33.73   0
  -7  -5 -10  463.73   35.13   0
  -6  -6  -8  897.88   37.13   0
  -5 -10 -10  375.77   35.28   0
  -4 -11 -10   -8.11   27.83   0
  -3  -1  -2  786.73   39.90   0
  -1  -4  -2   75.48   22.23   0
   0 -11  -8   22.96   43.01   0
   3  -4  -2   98.92   65.74   0
  -5  -7  -7    7.77   25.69   0
  -4  -4  -4 1137.70   39.79   0
  -3 -13 -12   64.78   38.98   0
  -3  -7  -5  429.76   31.17   0
  -1 -13 -11  304.06   48.46   0
   0   5   0   35.54   23.50   0
   2  -6  -3 5096.29  142.91   0
  -7  -6 -10    1.62   29.06   0
  -7  -3  -9  418.52   38.73   0
  -5 -11 -11  124.64   31.25   0
  -4   2  -3 1361.30   60.25   0
  -1 -11  -8  775.81   48.99   0
  -1  -2  -1   46.56   22.61   0
  -7  -4  -9    3.30   30.17   0
  -6  -9 -10  578.90   36.21   0
  -5  -4  -5 1748.18   45.03   0
  -3  -4  -3 3098.80   62.66   0
  -2 -13 -11   20.40   38.27   0
  -2 -10  -7  844.49   46.85   0
  -6 -10 -11   34.02   31.05   0
  -6  -8  -9  924.09   39.19   0
  -5  -6  -6 1344.27   41.71   0
  -3 -12 -10  277.27   40.02   0
  -2  -8  -5   27.32   24.63   0
  -7  -5  -9  526.68   35.02   0
  -6  -7  -8   72.70   26.36   0
  -6  -2  -6  546.09   33.60   0
  -6  -1  -6 1066.90   44.08   0
  -3  -6  -4 2718.53   58.32   0
  -2 -11  -8  433.03   42.21   0
  -1 -12  -9  505.17   49.26   0
  -6  -3  -6   17.73   24.84   0
  -4 -10  -8  326.61   33.42   0
  -4  -9  -7  453.65   35.38   0
  -1  -6  -3  368.58   33.20   0
  -6   0  -6   95.11   32.55   0
  -5 -10  -9  268.65   33.39   0
  -5  -9  -8   60.69   29.31   0
  -5  -1  -4    4.52   22.02   0
  -5   0  -4 1745.28   53.19   0
  -4 -11  -9  605.47   41.36   0
  -3 -13 -11  736.86   47.52   0
  -3  -2  -2 3966.90   75.05   0
  -7  -3  -8  354.04   36.41   0
  -5 -11 -10  754.97   38.79   0
  -5  -8  -7  564.50   34.91   0
  -5  -5  -5 1678.62   44.74   0
  -4  -8  -6 2080.74   51.37   0
  -4  -5  -4 1666.29   45.55   0
  -2 -12  -9   52.31   39.40   0
  -7  -9 -11  310.17   29.75   0
  -7  -2  -8   21.64   32.87   0
  -6 -10 -10  294.03   34.92   0
  -6  -9  -9   82.29   29.36   0
  -3  -9  -6  891.70   41.24   0
  -2 -14 -12  237.52   44.78   0
  -7  -8 -10  556.43   33.31   0
  -6 -11 -11  419.88   36.15   0
  -6  -8  -8  394.58   32.65   0
  -5 -12 -11  218.93   32.66   0
  -5  -7  -6 1338.56   43.07   0
  -5   1  -4 2341.10   65.16   0
  -4  -3  -3 2315.83   53.77   0
  -2  -1  -1 1689.26   59.60   0
  -1 -13 -10   12.28   45.07   0
  -8  -5 -11  333.51   34.27   0
  -8  -4 -11  378.23   39.55   0
  -7  -5  -8  221.13   29.66   0
  -7  -1  -8  368.55   41.81   0
  -6   1  -6  523.93   43.57   0
  -4  -7  -5 1117.43   38.97   0
  -2 -13 -10  535.69   44.83   0
  -1   5  -1  705.61   49.38   0
   1  -5  -2 1173.68   65.61   0
  -6  -5  -6  867.10   35.84   0
  -5  -3  -4 2170.64   49.55   0
  -4 -13 -11  -20.11   35.22   0
  -3 -12  -9  462.97   42.22   0
  -2  -4  -2 3767.23   73.06   0
  -6  -7  -7 1402.46   43.47   0
  -4   3  -3  162.56   46.78   0
  -1 -10  -6 1278.68   52.72   0
  -7  -9 -10    7.14   24.45   0
  -5 -11  -9   56.57   30.80   0
  -5 -10  -8  671.68   38.83   0
  -5  -6  -5   44.95   21.97   0
  -2   5  -2  197.68   43.87   0
  -1 -11  -7  326.60   41.91   0
  -1  -9  -5 1061.48   47.13   0
  -8  -5 -10  240.11   32.54   0
  -8  -4 -10   14.93   32.03   0
  -7  -8  -9  272.27   28.28   0
  -7  -3  -7  149.63   28.89   0
  -6  -2  -5  478.61   32.86   0
  -6  -1  -5  137.36   28.09   0
  -5  -9  -7  951.71   41.84   0
  -4 -10  -7 1427.92   48.03   0
  -3 -13 -10   -6.50   37.00   0
  -3  -7  -4  533.78   31.24   0
  -3  -3  -2 4462.26   76.07   0
   2   0   0   94.50   25.98   0
   3  -2  -1  133.83   34.22   0
   4  -3  -2  167.29   41.57   0
  -7  -4  -7  215.55   31.19   0
  -7  -2  -7  616.14   41.98   0
  -6 -11 -10   -4.48   31.15   0
  -6 -10  -9  462.71   37.37   0
  -6  -9  -8  809.49   42.36   0
  -6  -6  -6  169.17   25.64   0
  -5 -12 -10  113.41   33.65   0
  -5  -4  -4  284.93   24.80   0
  -4  -6  -4    4.16   18.47   0
  -4  -4  -3  208.30   23.22   0
  -2 -14 -11  260.25   45.79   0
  -2 -11  -7  653.55   44.01   0
  -2 -10  -6   22.57   31.59   0
  -1 -12  -8   83.31   45.66   0
   1 -10  -6  641.32   50.33   0
   1  -9  -5  175.33   39.14   0
  -8  -6 -10  371.75   32.86   0
  -5  -8  -6   22.19   25.95   0
  -5   2  -4  329.72   39.92   0
  -4  -9  -6  605.64   37.23   0
  -1  -8  -4  142.50   28.88   0
  -7  -1  -7  350.76   40.16   0
  -6  -8  -7  336.03   32.69   0
  -6   0  -5  963.14   45.81   0
  -3 -14 -11  194.09   41.37   0
  -2 -12  -8  508.36   45.25   0
  -8  -7 -10   53.02   28.63   0
  -7 -10 -10  213.63   31.42   0
  -4 -13 -10  502.79   44.27   0
  -4  -8  -5   18.14   23.62   0
  -2  -2  -1 5119.32   91.94   0
  -1  -3  -1 1280.66   51.54   0
   0   3   0 3672.96   94.21   0
   1  -8  -4   33.21   35.12   0
  -8  -5  -9  210.65   31.66   0
  -7  -9  -9  574.23   33.00   0
  -3 -11  -7  646.28   42.60   0
  -1 -13  -9  486.77   51.12   0
  -8  -3  -9  124.35   37.46   0
  -7  -8  -8  385.81   30.83   0
  -6  -7  -6  237.33   29.76   0
  -5  -7  -5 1017.72   38.48   0
  -5  -5  -4 1346.47   40.82   0
  -3 -12  -8   14.89   36.05   0
  -3  -6  -3   88.00   21.44   0
  -2 -13  -9   58.72   38.44   0
  -8  -6  -9   27.86   28.91   0
  -6 -11  -9  688.79   38.49   0
  -6  -5  -5  102.47   22.86   0
  -5 -11  -8  455.30   34.69   0
  -3  -9  -5  216.12   27.40   0
  -6 -10  -8   68.59   32.22   0
  -5 -10  -7  132.19   30.81   0
  -4  -7  -4 1135.00   39.82   0
  -4  -5  -3 2658.36   54.69   0
  -3 -13  -9  494.10   46.63   0
  -3  -4  -2  434.22   28.96   0
  -2  -5  -2  839.20   37.02   0
   2   1   0  841.76   43.81   0
  -8  -7  -9  308.62   32.61   0
  -7  -7  -7   68.28   25.85   0
  -7  -4  -6  329.87   31.82   0
  -7  -2  -6  215.35   32.55   0
  -6  -9  -7  173.37   34.06   0
  -6   1  -5  849.58   47.98   0
  -5   0  -3 1292.20   46.35   0
  -2 -14 -10   66.21   47.88   0
  -7 -10  -9  124.78   30.89   0
  -4  -2  -2   44.18   17.44   0
  -4   1  -2  232.14   31.42   0
  -3  -8  -4  250.65   27.23   0
   1   3   0   28.96   17.11   0
   2   2   0 1862.83   54.43   0
  -8  -5  -8  532.39   37.28   0
  -8  -4  -8   20.45   28.42   0
  -8  -3  -8  287.77   40.90   0
  -7  -9  -8   13.95   26.64   0
  -5  -3  -3  509.51   27.45   0
  -4 -10  -6   11.90   27.57   0
  -3 -14 -10  213.31   41.37   0
  -2  -7  -3   24.83   19.06   0
  -7  -1  -6  177.60   33.57   0
  -6  -2  -4  527.86   31.71   0
  -5  -8  -5 1011.64   39.55   0
  -4 -13  -9  149.42   39.04   0
   1  -7  -3 1520.62   64.26   0
  -8  -6  -8  367.65   33.61   0
  -4  -9  -5  806.81   38.42   0
   2  -9  -5  296.99   51.93   0
  -7  -8  -7  860.13   36.31   0
  -5   1  -3   23.75   27.52   0
  -4  -3  -2  894.76   35.00   0
  -2 -12  -7   39.34   37.41   0
  -2 -11  -6  833.41   45.66   0
  -2  -3  -1 1718.24   51.46   0
  -1 -12  -7  956.87   54.12   0
  -1 -11  -6  236.01   39.47   0
  -1 -10  -5    5.21   31.29   0
  -6 -12  -9   20.88   30.41   0
  -6 -11  -8  219.62   32.58   0
  -4  -6  -3 2741.12   55.09   0
  -3  -1  -1 2429.83   60.88   0
  -2 -10  -5 1167.48   47.42   0
   1   2   0 5601.88  104.96   0
  -8  -9  -9    8.98   28.24   0
  -7 -11  -9   65.88   32.31   0
  -6 -10  -7  787.13   39.32   0
  -6  -7  -5  560.81   34.43   0
  -5 -11  -7  166.67   29.69   0
  -3 -12  -7  939.93   47.15   0
  -3 -11  -6  324.06   37.79   0
  -3  -5  -2 3370.98   63.06   0
  -2 -13  -8  305.10   44.72   0
  -8  -4  -7  557.48   37.03   0
  -6   0  -4  132.49   29.93   0
  -5 -10  -6  966.30   42.79   0
  -5  -7  -4  407.93   29.11   0
  -3 -13  -8  328.15   43.39   0
  -1 -13  -8  193.18   47.22   0
  -1  -9  -4  866.79   44.19   0
   1   1   0 3411.40   98.78   0
  -8  -5  -7   46.69   28.28   0
  -8  -3  -7  540.95   41.05   0
  -7  -3  -5  130.39   28.48   0
  -6  -5  -4  936.71   35.45   0
  -3  -2  -1    6.31   16.01   0
   2  -8  -4 1041.56   73.67   0
  -8  -6  -7  248.58   32.45   0
  -7  -2  -5  468.01   35.97   0
  -3 -14  -9   15.82   39.56   0
  -2 -14  -9  493.27   50.25   0
  -2  -6  -2  865.81   37.44   0
  -1  -4  -1 5505.96   93.79   0
  -8  -2  -7   30.91   37.58   0
  -5  -9  -5  355.27   33.37   0
  -4 -13  -8  457.97   44.47   0
  -4 -12  -7   21.86   34.51   0
  -4   2  -2  803.02   50.79   0
   4  -4  -3   15.09   37.93   0
  -9  -5  -9  259.91   36.04   0
  -6  -8  -5  149.84   29.08   0
  -8  -9  -8  370.51   30.18   0
  -7 -11  -8  431.88   36.84   0
  -7  -8  -6    2.28   25.81   0
  -6 -12  -8  458.30   35.69   0
  -6  -6  -4   28.16   24.25   0
  -4 -10  -5  653.73   36.53   0
  -1  -8  -3 1232.12   47.85   0
  -7  -6  -5   65.09   23.53   0
  -3  -3  -1 2478.52   55.78   0
  -2  -4  -1 1115.59   40.87   0
  -7 -10  -7   20.35   28.66   0
  -6 -10  -6   -9.90   29.95   0
  -6   1  -4   30.12   29.96   0
  -5 -13  -8  274.17   39.42   0
  -5  -8  -4   61.41   26.35   0
  -5  -6  -3  196.50   24.72   0
  -4  -5  -2  327.09   25.18   0
  -3  -6  -2  822.54   34.67   0
  -1   5  -2 1206.80   54.55   0
  -8  -8  -7   72.17   27.16   0
  -5 -11  -6  179.45   30.25   0
   1 -10  -5   29.94   40.97   0
  -9  -6  -8  132.98   30.93   0
  -9  -5  -8   15.23   29.68   0
  -8  -3  -6   36.79   31.64   0
  -7  -9  -6  444.54   34.68   0
  -7  -7  -5  343.05   28.93   0
  -6  -7  -4  901.07   38.59   0
  -5   2  -3  725.24   48.70   0
  -3  -8  -3 1333.84   42.64   0
  -9  -4  -8  326.91   42.16   0
  -8  -6  -6   91.38   28.32   0
  -7   0  -5  269.34   37.69   0
  -6  -4  -3   -2.33   19.08   0
  -6  -1  -3   32.50   23.58   0
  -5 -10  -5  156.72   30.15   0
  -5  -3  -2  237.39   21.69   0
  -3 -12  -6   69.14   35.11   0
  -2 -12  -6 1018.07   51.47   0
  -9  -7  -8  346.18   31.53   0
  -8  -9  -7   96.90   25.48   0
  -8  -2  -6  717.88   44.67   0
  -3 -13  -7  184.58   40.44   0
  -3 -11  -5  999.13   47.08   0
  -2 -13  -7  494.43   47.22   0
  -2 -11  -5  302.26   38.65   0
   1  -6  -2 1737.80   73.11   0
  -7  -4  -4  181.20   27.90   0
  -5  -4  -2  121.43   21.23   0
  -5   0  -2  242.37   27.85   0
  -3 -14  -8  296.54   41.04   0
  -3  -4  -1 2440.79   53.85   0
  -3   2  -1 1654.36   78.11   0
  -2 -14  -8   -1.01   44.32   0
   1  -9  -4 1219.22   60.57   0
  -6 -12  -7   27.63   27.67   0
  -5  -7  -3 2142.73   48.56   0
  -4 -13  -7  533.21   43.13   0
  -4 -12  -6  429.69   39.85   0
  -4  -8  -3  306.33   27.99   0
  -2 -10  -4  157.94   31.13   0
  -2  -7  -2 2402.43   55.62   0
  -1 -11  -5  903.86   49.72   0
  -1   0   0    5.54   16.84   0
  -6 -11  -6  662.17   39.39   0
  -6  -8  -4  595.48   35.83   0
  -5  -9  -4  857.25   39.22   0
  -4 -14  -8   48.54   36.64   0
  -4  -2  -1 1791.58   46.37   0
  -4  -1  -1 1704.01   47.74   0
  -9  -5  -7  520.94   36.07   0
  -7 -10  -6  629.84   39.83   0
  -6   0  -3 1011.61   43.70   0
  -3 -15  -9  112.00   42.83   0
  -1 -10  -4  422.49   37.15   0
  -1  -5  -1  568.86   33.68   0
  -1  -1   0 3807.56   96.83   0
  -9  -6  -7  200.17   30.35   0
  -9  -4  -7  207.59   38.98   0
  -8  -5  -5  211.35   30.39   0
  -8  -4  -5  101.78   29.22   0
  -7  -1  -4   -1.39   28.84   0
  -6  -6  -3  913.83   37.31   0
  -5 -13  -7  119.02   37.46   0
  -5  -5  -2 1799.71   44.96   0
  -4  -3  -1  344.20   24.75   0
  -3  -7  -2    8.21   18.91   0
  -2   5  -3  521.06   47.26   0
  -9  -7  -7   50.42   28.65   0
  -2  -9  -3 2068.10   54.46   0
  -7  -9  -5   99.18   31.05   0
  -5 -11  -5  614.20   38.65   0
  -3  -5  -1   22.97   18.68   0
  -8  -9  -6  299.53   28.42   0
  -7  -7  -4  309.26   28.88   0
  -5  -8  -3  897.93   37.09   0
  -5   1  -2 1435.98   52.71   0
  -4  -4  -1  635.85   30.05   0
   0 -11  -5   82.45   38.67   0
   2  -7  -3  940.20   85.91   0
  -8  -2  -5  406.14   38.92   0
  -6  -9  -4   19.14   28.88   0
  -6  -7  -3   80.48   27.53   0
  -5  -6  -2 1478.46   42.50   0
  -4  -7  -2 1469.48   42.68   0
  -2  -1   0  818.34   38.63   0
  -1  -9  -3  208.50   32.16   0
  -6 -12  -6  490.50   38.93   0
  -5 -10  -4  481.92   34.96   0
  -1  -2   0 5975.15  107.37   0
   0 -10  -4  329.71   41.33   0
   1  -8  -3 1871.17   72.27   0
   4  -5  -4 1456.60   74.00   0
  -9  -5  -6   52.89   29.47   0
  -7  -8  -4   91.14   28.06   0
  -7  -3  -3  606.15   35.57   0
  -7   0  -4  634.74   41.84   0
  -6  -2  -2   32.97   20.71   0
  -3 -14  -7   31.92   43.82   0
  -3 -13  -6  627.53   45.53   0
  -3 -12  -5  441.49   39.97   0
  -2  -2   0 1756.65   50.97   0
  -2   0   0  113.63   21.69   0
  -2   4  -2  286.81   41.79   0
  -9  -4  -6  151.00   34.88   0
  -8 -10  -6   55.43   30.02   0
  -8  -8  -5    0.52   24.22   0
  -7 -10  -5  152.21   33.87   0
  -6 -11  -5   36.99   28.77   0
  -6  -4  -2 1413.13   39.55   0
  -6   1  -3 1516.41   55.42   0
  -4 -14  -7  386.07   42.64   0
  -4 -13  -6   -5.50   36.58   0
  -4 -12  -5  229.59   37.61   0
  -2 -13  -6   78.60   42.54   0
  -7  -2  -3  104.50   26.19   0
  -4  -5  -1 2883.75   54.07   0
  -4   1  -1 2143.92   63.38   0
  -3 -11  -4   13.14   32.83   0
  -3  -8  -2 1263.26   42.22   0
  -2 -12  -5  397.18   42.90   0
  -2  -6  -1 1375.46   42.57   0
  -8  -5  -4  331.08   32.99   0
  -8  -4  -4  590.18   35.15   0
  -8  -1  -5   21.75   33.24   0
  -7  -6  -3  259.83   28.97   0
  -6  -8  -3  258.91   32.86   0
  -6  -5  -2   50.52   21.61   0
  -6  -1  -2  892.35   37.20   0
  -5 -14  -7   96.32   36.64   0
  -5 -13  -6  413.15   42.52   0
  -5  -9  -3    6.33   27.98   0
  -5  -7  -2   82.92   23.04   0
  -5  -3  -1 1102.81   36.29   0
  -5  -2  -1  120.24   20.77   0
  -3  -6  -1  810.22   33.46   0
  -2 -11  -4 1123.70   50.41   0
  -9  -3  -6  417.34   42.48   0
  -8  -9  -5  360.53   31.74   0
  -8  -3  -4  176.64   32.82   0
  -6 -10  -4  295.04   34.23   0
   2   1  -1 5636.77   95.86   0
  -7  -9  -4  818.43   41.16   0
  -4  -8  -2  722.66   34.57   0
  -3  -2   0 3811.79   66.52   0
  -1  -8  -2  599.17   37.40   0
   0  -9  -3  852.75   49.10   0
  -8  -7  -4  431.61   32.64   0
  -7  -7  -3  623.53   34.91   0
  -6  -6  -2  284.97   28.79   0
  -3 -10  -3  786.05   42.95   0
  -1  -3   0   29.24   17.17   0
   0   3  -1  199.84   29.14   0
  -9  -5  -5  499.50   36.93   0
  -8  -2  -4  159.84   34.99   0
  -7 -11  -5  542.47   38.30   0
  -4  -6  -1  673.74   31.83   0
  -3  -3   0 1598.01   43.41   0
  -2 -10  -3  301.79   34.32   0
   2   0  -1 2283.30   70.38   0
  -9  -6  -5   -4.03   28.55   0
  -9  -4  -5  397.78   35.93   0
  -6 -12  -5  294.93   38.99   0
  -6  -9  -3  709.65   37.67   0
  -5  -5  -1   19.83   19.46   0
  -9  -7  -5  468.14   35.86   0
  -8 -10  -5  456.19   35.12   0
  -8  -8  -4  634.59   33.91   0
  -6  -7  -2 1135.75   40.17   0
  -6   0  -2  744.34   38.47   0
  -5  -8  -2  821.77   38.39   0
  -3   0   0  253.06   25.84   0
  -7 -10  -4  320.55   36.40   0
  -7  -8  -3  444.75   34.06   0
  -6 -11  -4  547.36   37.97   0
  -5 -10  -3  778.45   38.03   0
  -5   0  -1 2026.32   53.01   0
  -3  -7  -1  966.76   37.50   0
  -2  -4   0 5067.36   78.12   0
  -1   4  -2 1495.81   58.88   0
  -9  -3  -5   20.54   34.38   0
  -4 -14  -6  120.53   39.32   0
  -4 -13  -5  354.06   42.94   0
  -3 -14  -6  218.47   47.94   0
  -3  -4   0  859.47   33.70   0
  -2   1   0 1608.71   70.29   0
   1   2  -1 4182.18   86.49   0
  -8  -5  -3  628.10   36.36   0
  -8  -4  -3    1.69   27.02   0
  -7  -5  -2 1094.67   38.04   0
  -7  -3  -2  623.56   34.07   0
  -5 -14  -6  179.76   40.49   0
  -5  -6  -1  820.17   33.08   0
  -4  -9  -2   33.91   26.19   0
  -4  -7  -1   56.67   21.40   0
  -4  -3   0 4091.64   64.04   0
  -4  -2   0 1399.66   39.68   0
  -3 -13  -5    4.20   35.94   0
  -8  -9  -4   53.92   26.90   0
  -7   0  -3  816.18   41.87   0
  -5 -13  -5   19.31   36.09   0
  -5   2  -2  997.07   55.29   0
  -4 -12  -4  107.53   34.72   0
  -3 -12  -4  559.88   43.91   0
  -3   4  -3   86.68   45.95   0
  -1  -4   0 3751.37   74.82   0
 -10  -5  -6  241.90   38.67   0
  -8  -3  -3  264.58   30.62   0
  -7  -9  -3    3.92   30.96   0
  -7  -6  -2  423.12   30.08   0
  -7  -2  -2 1360.26   43.28   0
  -6 -10  -3   95.96   30.36   0
  -6  -8  -2  346.01   33.42   0
  -5 -12  -4  352.69   39.88   0
  -4  -1   0  548.46   29.35   0
  -2 -13  -5  520.46   53.14   0
   0  -8  -2 1200.76   52.18   0
   1  -7  -2   98.86   36.75   0
  -9  -6  -4  402.97   35.99   0
  -9  -5  -4  390.10   35.89   0
  -8  -7  -3   46.46   24.50   0
  -6  -5  -1 1118.28   37.19   0
  -4  -4   0  159.17   18.86   0
  -9  -7  -4   20.09   28.91   0
  -9  -4  -4    0.90   30.33   0
  -7 -11  -4  -12.96   31.10   0
  -5  -7  -1 1228.61   39.98   0
  -4 -11  -3   45.87   32.27   0
  -3 -11  -3  770.42   43.21   0
  -2  -5   0   22.93   16.96   0
  -8 -10  -4  285.80   34.93   0
  -8  -2  -3  417.82   38.84   0
  -7  -7  -2   20.03   26.24   0
   0 -11  -4  883.83   53.43   0
  -8  -8  -3  317.26   30.12   0
  -7  -1  -2  610.04   36.86   0
  -6  -6  -1  483.45   31.87   0
  -6  -1  -1  951.66   37.74   0
  -4  -5   0  550.66   28.00   0
  -3  -8  -1  358.31   27.60   0
  -7 -10  -3  242.40   32.97   0
  -6  -9  -2  197.09   31.57   0
  -6   1  -2   66.60   29.15   0
  -6   2  -3  347.12   45.69   0
  -5  -3   0   -2.83   16.16   0
  -4  -8  -1 1265.90   40.71   0
  -4   2  -1  981.18   55.29   0
  -2 -11  -3  182.45   35.79   0
  -7  -8  -2  592.24   37.18   0
  -6 -11  -3   60.47   30.17   0
  -5  -4   0 1165.78   36.42   0
  -5  -2   0 1507.43   39.96   0
  -5   1  -1  372.87   32.98   0
  -3 -10  -2  226.16   35.01   0
   1  -5  -1   27.13   32.52   0
 -10  -5  -5   64.15   34.00   0
  -8  -9  -3  556.89   34.88   0
  -6  -7  -1  110.17   27.95   0
  -5  -8  -1   14.55   26.87   0
  -4 -14  -5  107.48   37.65   0
  -3  -6   0  800.70   32.74   0
  -1  -5   0 3978.47   74.74   0
  -8  -4  -2  796.47   38.57   0
  -5 -14  -5  226.65   39.12   0
  -5  -5   0 1421.66   39.86   0
  -4 -13  -4   83.60   37.95   0
  -4  -6   0 1069.73   36.07   0
   0 -10  -3 1001.98   51.86   0
  -9  -6  -3   37.81   30.82   0
  -9  -5  -3  129.32   32.41   0
  -8  -1  -3  154.68   34.25   0
  -7  -5  -1   54.67   23.57   0
  -7  -3  -1 1519.31   44.51   0
  -5 -13  -4  382.50   41.31   0
  -3 -14  -5  245.53   47.03   0
  -2 -10  -2  811.67   43.71   0
  -2  -6   0 1277.52   40.34   0
   1  -9  -3   16.51   40.41   0
  -8  -7  -2  754.71   34.31   0
  -8  -3  -2  673.44   36.15   0
  -7  -9  -2  444.33   38.46   0
  -7  -6  -1  870.65   37.28   0
  -6 -10  -2  650.48   37.27   0
  -6   0  -1    1.17   23.63   0
  -4 -12  -3  558.77   43.69   0
  -3 -13  -4  531.25   46.20   0
  -9  -4  -3  420.23   35.72   0
  -8 -10  -3   64.89   32.46   0
  -7 -11  -3  332.11   35.26   0
  -7   1  -3   22.33   36.75   0
  -6  -8  -1  859.54   39.18   0
  -5 -12  -3   76.29   35.33   0
  -5  -6   0  189.76   23.66   0
  -4  -9  -1  852.24   38.18   0
  -7  -2  -1   97.65   24.73   0
  -7   0  -2   65.00   29.21   0
  -6  -4   0 1029.64   36.28   0
  -3 -12  -3   47.03   37.12   0
  -1  -8  -1  759.32   39.83   0
   1   1  -1 1274.43   54.95   0
  -9  -3  -3  142.35   35.37   0
  -8  -8  -2  117.33   28.57   0
  -8  -2  -2   17.98   29.11   0
  -7  -7  -1  988.09   39.84   0
  -6  -5   0   -7.62   22.41   0
  -6  -3   0 1743.18   42.80   0
  -5  -9  -1  580.56   34.47   0
  -4  -7   0 1198.56   38.36   0
  -3  -7   0  330.69   25.99   0
  -2   4  -3 1218.26   59.01   0
   0  -7  -1   50.32   27.27   0
 -10  -5  -4  225.37   33.81   0
  -4 -11  -2  393.08   37.89   0
  -2 -13  -4   16.95   43.84   0
   3  -4  -3 2315.00   85.80   0
  -7 -10  -2   46.71   29.00   0
  -5  -7   0  347.21   29.25   0
  -5   0   0   19.99   19.79   0
  -3 -11  -2  282.49   36.08   0
  -3  -3   1 3616.13   60.57   0
  -3  -2   1  475.14   26.33   0
   0  -9  -2   79.80   35.63   0
   0   2  -1 2281.00   79.13   0
 -10  -4  -4  325.67   42.59   0
  -8  -9  -2   66.25   30.92   0
  -7  -8  -1  102.20   31.66   0
  -6  -9  -1  406.33   33.50   0
  -6  -6   0 1261.81   38.79   0
  -4  -3   1   78.92   16.94   0
  -4   1   0 1056.01   44.55   0
  -3  -4   1  717.72   30.54   0
  -2 -12  -3  572.34   48.63   0
  -2  -9  -1  964.29   41.87   0
  -2  -2   1 4029.95   71.56   0
  -7  -1  -1  237.41   27.08   0
  -4  -4   1 1608.14   39.86   0
  -4  -2   1 1642.87   40.68   0
  -2  -3   1    2.79   15.32   0
  -9  -5  -2  513.23   36.84   0
  -9  -2  -3    1.23   36.29   0
  -8  -6  -1  134.52   28.21   0
  -8  -4  -1  351.26   32.49   0
  -6  -7   0 1050.92   40.23   0
  -4 -14  -4  292.57   45.17   0
  -4  -8   0   28.65   25.08   0
  -3  -1   1   12.07   13.65   0
  -9  -4  -2  100.63   30.74   0
  -8  -1  -2  439.87   38.62   0
  -6  -1   0  289.36   26.26   0
  -5 -13  -3  147.24   38.04   0
  -5 -10  -1  979.35   42.32   0
  -4  -5   1 2240.27   47.31   0
  -2  -4   1 3945.86   67.01   0
   3  -3  -3  153.16   35.33   0
  -9  -8  -2  349.51   34.76   0
  -8  -7  -1  112.04   25.71   0
  -8  -3  -1   37.26   26.37   0
  -7  -9  -1  232.28   34.95   0
  -7  -5   0  834.75   34.66   0
  -5  -4   1  392.26   25.11   0
  -5  -3   1 3093.15   53.05   0
  -4 -13  -3  429.74   41.73   0
  -3 -10  -1  412.58   37.07   0
  -3  -5   1  417.51   24.85   0
  -2  -1   1 5655.21   89.51   0
 -10  -5  -3  346.68   34.80   0
  -7  -6   0   79.56   27.30   0
  -6 -10  -1   17.20   26.92   0
  -3 -14  -4   -2.17   45.72   0
   2   0  -2 1270.49   49.84   0
  -8  -8  -1  452.68   34.10   0
  -6  -8   0    8.73   27.52   0
  -6   1  -1  869.76   44.63   0
  -5 -12  -2  506.87   41.59   0
  -5  -5   1  300.68   24.55   0
  -5  -2   1 2388.13   47.27   0
  -4 -12  -2    7.48   36.15   0
   1  -8  -2  717.43   55.65   0
 -10  -4  -3   23.48   37.98   0
  -8  -2  -1  551.94   36.15   0
  -7  -7   0  370.04   31.72   0
  -4  -6   1   84.41   21.13   0
  -3 -13  -3  216.11   43.67   0
  -2  -5   1 2227.97   50.41   0
  -7 -10  -1  468.84   34.46   0
  -7  -2   0  818.05   36.21   0
  -7   1  -2  766.53   48.05   0
  -6   2  -2  229.38   44.34   0
  -5  -6   1 1090.00   36.56   0
  -3  -6   1 3698.41   60.79   0
  -2  -8   0   79.43   24.63   0
  -1  -7   0  137.04   25.19   0
  -8  -9  -1  155.77   34.07   0
  -6  -4   1 1242.07   36.79   0
  -5  -9   0  325.56   30.41   0
  -5   2  -1  369.17   41.09   0
  -3 -12  -2  644.06   47.79   0
  -3   0   1 1203.00   42.49   0
  -2 -10  -1   -9.55   31.58   0
   3  -6  -4 2725.04  103.16   0
  -9  -6  -1  280.84   31.89   0
  -7  -8   0  828.60   41.66   0
  -6  -9   0  560.81   36.99   0
  -6  -3   1   51.72   18.47   0
  -6   0   0 1356.84   43.95   0
  -5   1   0 1401.70   48.85   0
  -4 -11  -1  363.78   36.79   0
  -1   3  -2   51.31   22.85   0
   0  -8  -1  895.02   48.37   0
  -9  -5  -1    3.50   28.12   0
  -9  -2  -2  463.65   42.36   0
  -6  -6   1   21.06   25.24   0
  -5  -7   1  451.02   31.22   0
  -4  -7   1  579.88   30.92   0
  -3  -9   0  424.89   33.94   0
  -9  -4  -1  331.16   33.83   0
  -8  -6   0  491.17   31.05   0
  -8  -4   0  149.63   28.22   0
  -8   0  -2 1131.50   53.01   0
  -2  -6   1  174.65   20.80   0
  -1  -4   1  409.34   28.08   0
 -10  -5  -2    9.26   29.64   0
  -8  -7   0  263.57   28.34   0
  -8  -1  -1  537.22   40.37   0
  -7 -11  -1  202.85   31.48   0
  -7  -1   0 1047.46   38.39   0
  -3 -11  -1  337.47   36.85   0
  -3  -7   1 1103.17   37.44   0
  -2   0   1 2396.18   65.23   0
  -8  -3   0  726.80   35.89   0
  -7  -9   0  132.83   30.86   0
  -6  -7   1  616.39   35.92   0
  -5 -13  -2  112.32   35.90   0
  -4 -14  -3   20.17   39.88   0
   2  -1  -2 5348.26  105.41   0
 -10  -4  -2  354.58   39.40   0
  -9  -3  -1  642.68   38.12   0
  -8  -8   0    9.61   25.97   0
  -7  -5   1  132.25   24.46   0
  -7  -4   1  142.49   23.49   0
  -6 -10   0  624.47   36.39   0
  -4 -13  -2  374.06   41.19   0
  -4 -10   0  687.94   41.34   0
  -2 -12  -2   51.34   42.82   0
  -1  -1   1 1388.72   54.11   0
   0 -10  -2 1327.13   58.42   0
  -7  -6   1 1004.50   38.06   0
  -6  -1   1 1374.08   39.91   0
  -5  -8   1   24.01   25.53   0
  -5   0   1 2335.86   52.38   0
  -4  -8   1 1380.67   42.71   0
  -2  -9   0  652.23   38.95   0
  -1  -5   1   90.24   22.63   0
  -6 -12  -1  199.81   35.29   0
  -6  -8   1  672.79   36.11   0
  -5 -12  -1  143.43   37.46   0
  -4  -4   2  112.82   16.59   0
  -4  -3   2 1542.95   37.16   0
  -8  -9   0  134.71   32.49   0
  -8  -2   0  184.00   29.62   0
  -7 -10   0   96.91   32.31   0
  -7  -7   1  334.26   29.64   0
  -5  -4   2  828.09   30.81   0
  -5  -3   2  326.24   22.43   0
  -4 -12  -1  654.10   44.51   0
  -4  -5   2 1756.73   42.55   0
  -3 -10   0   14.95   30.06   0
  -3  -4   2 4642.45   65.94   0
  -3  -3   2 1036.49   33.25   0
  -9  -5   0  393.04   34.62   0
  -7  -2   1  383.98   31.17   0
  -5  -5   2  968.64   33.20   0
  -3 -13  -2  258.39   45.73   0
  -3  -2   2 2647.43   51.85   0
  -2 -11  -1  431.53   44.11   0
   3  -5  -4 1346.35   65.70   0
  -9  -2  -1   89.42   36.53   0
  -7  -8   1   47.95   29.29   0
  -5  -9   1  486.00   31.77   0
  -5  -2   2  483.55   24.75   0
  -3  -5   2 1738.32   42.62   0
   1   1  -2  174.69   22.79   0
 -10  -5  -1  327.90   33.11   0
  -9  -4   0  347.22   34.29   0
  -8  -6   1   10.55   21.85   0
  -7   0   0  135.49   28.95   0
  -7   1  -1  583.80   42.43   0
  -6  -9   1  127.03   27.15   0
  -6  -5   2  495.43   29.86   0
  -6  -4   2   57.43   22.26   0
  -6   1   0 1325.49   49.95   0
  -5 -11   0  564.65   41.43   0
  -5  -6   2    7.32   21.58   0
  -4  -6   2 2693.55   51.42   0
  -8  -7   1  272.64   26.83   0
  -8  -4   1  580.85   33.26   0
  -4 -11   0   18.11   34.10   0
  -4  -1   2   66.20   16.30   0
  -3 -12  -1    3.24   36.82   0
 -10  -4  -1  198.40   32.68   0
  -8   0  -1   -2.60   32.20   0
  -6  -6   2  949.67   35.93   0
  -4   2   0   11.49   25.43   0
  -3  -6   2   55.75   18.96   0
  -3  -1   2 6701.55   83.37   0
  -2  -3   2 2089.05   48.75   0
   0  -9  -1 1140.80   53.57   0
   0   2  -2 2350.43   67.26   0
  -9  -3   0    9.16   28.36   0
  -8  -8   1  317.63   33.36   0
  -8  -3   1   83.39   26.93   0
  -8  -1   0  142.77   32.88   0
  -7  -9   1  469.47   33.62   0
  -7  -1   1   36.36   24.68   0
  -6   0   1  584.71   32.03   0
  -5 -13  -1  319.59   39.88   0
  -5  -7   2  723.91   33.84   0
  -4  -7   2  151.21   25.09   0
  -2  -8   1 1016.70   39.86   0
  -7  -5   2  269.00   25.77   0
  -7  -4   2  906.27   34.62   0
  -6  -7   2  163.78   28.86   0
  -4 -14  -2  206.77   40.40   0
  -3  -9   1  730.77   39.72   0
  -2 -10   0  762.06   42.34   0
  -2  -2   2 4983.44   74.88   0
  -7  -6   2  140.78   26.53   0
  -6 -10   1   46.52   30.15   0
  -3 -11   0  531.46   41.72   0
  -2  -5   2  128.71   19.07   0
  -1   2  -1   41.55   25.80   0
   1  -7  -1  725.91   55.53   0
 -10  -3  -1   19.06   38.08   0
  -6   2  -1  978.27   55.42   0
  -5  -8   2  540.64   32.08   0
  -4 -13  -1   67.70   36.25   0
  -4 -10   1  290.73   35.05   0
  -3  -7   2 1333.57   40.80   0
   1  -9  -2 1436.97   73.52   0
  -9  -5   1  167.68   31.93   0
  -9  -2   0  304.91   36.99   0
  -8  -2   1  400.83   30.85   0
  -7 -10   1  192.62   31.73   0
  -7  -7   2  574.38   34.10   0
  -6  -8   2   61.93   27.62   0
  -5 -12   0  332.04   37.70   0
  -5   1   1 2045.12   53.38   0
  -6  -1   2  122.73   21.60   0
  -4  -8   2  276.84   27.89   0
  -9  -4   1   56.05   28.00   0
  -7  -8   2  322.56   32.15   0
  -7  -2   2   76.97   24.91   0
  -4 -12   0  147.72   35.46   0
  -4   0   2 1910.70   46.66   0
  -2 -12  -1  704.10   49.74   0
  -2  -1   2   75.48   16.93   0
 -10  -4   0   54.97   29.78   0
  -8  -6   2  436.91   28.67   0
  -5  -5   3 1245.97   37.58   0
  -5  -4   3    2.90   17.68   0
  -5   2   0 1681.31   60.48   0
  -4  -4   3 1888.15   41.30   0
  -4  -3   3  658.49   27.26   0
  -9  -3   1  467.26   34.04   0
  -8  -7   2   20.24   25.95   0
  -7   0   1  906.04   39.74   0
  -6  -9   2  759.10   34.78   0
  -6  -5   3   42.98   21.87   0
  -6  -4   3  682.15   30.06   0
  -5 -11   1    3.44   32.58   0
  -5  -9   2   49.52   27.90   0
  -4  -5   3  791.71   31.05   0
  -3 -13  -1  399.29   44.75   0
  -3   0   2 2535.57   55.79   0
  -2  -9   1  196.38   31.81   0
  -1   0   1 6589.60  129.27   0
  -8  -3   2  511.35   32.24   0
  -8  -1   1  798.80   40.42   0
  -8   0   0  678.10   41.12   0
  -7  -9   2    5.95   27.73   0
  -7   1   0  437.41   36.33   0
  -5  -6   3  996.34   36.21   0
  -4  -2   3  354.84   22.17   0
  -2   1   1 1233.42   55.71   0
   0   1  -1 3846.14  118.24   0
 -10  -3   0  263.67   40.17   0
  -6  -6   3  243.63   29.09   0
  -6  -3   3  591.42   27.12   0
  -4 -11   1  740.96   43.65   0
  -4  -6   3  384.52   28.37   0
  -3  -4   3   82.29   18.15   0
  -3  -3   3 1137.15   34.09   0
  -2 -11   0  251.96   40.93   0
  -2   3  -3  172.77   33.77   0
   0  -8   0  255.68   36.19   0
  -9  -1   0  378.61   40.97   0
  -7  -5   3  609.22   30.79   0
  -7  -1   2 1045.78   37.80   0
  -6   1   1   99.26   25.43   0
  -5  -7   3   17.63   23.57   0
  -3 -12   0  331.84   41.09   0
  -3  -5   3 1571.73   40.65   0
  -1  -8   1   14.32   24.92   0
  -1  -4   2 2508.84   54.97   0
  -1  -3   2 1763.12   48.13   0
  -7  -6   3  374.20   29.43   0
  -7  -4   3   42.78   20.61   0
  -6 -10   2  238.50   33.60   0
  -6  -7   3  808.21   36.08   0
  -6   0   2  558.95   30.37   0
  -3  -2   3 1085.22   34.02   0
  -9  -5   2  228.58   30.36   0
  -8  -2   2  588.62   32.48   0
  -4  -7   3  661.11   31.85   0
   0 -10  -1   19.91   34.21   0
 -10  -4   1  176.73   30.68   0
  -9  -4   2  547.75   34.80   0
  -7  -7   3   21.34   25.65   0
  -5 -12   1  219.68   35.87   0
  -5  -1   3  407.22   23.61   0
  -4 -13   0  395.25   42.34   0
  -4  -1   3 2255.76   45.19   0
  -3  -9   2   62.00   29.51   0
  -1  -2   2   36.89   15.34   0
  -5  -8   3  537.34   30.60   0
  -4 -10   2  373.86   36.49   0
  -3 -11   1   25.85   33.86   0
  -2 -10   1   64.39   33.56   0
  -8  -6   3  171.09   24.01   0
  -8  -5   3  167.29   26.64   0
  -7  -8   3  173.21   30.32   0
  -2  -8   2  272.58   28.40   0
   1   0  -2 2973.87   78.61   0
  -9  -3   2  152.78   29.09   0
  -8  -7   3  391.92   31.08   0
  -7  -2   3  596.30   30.17   0
  -3  -1   3  404.78   24.19   0
  -2  -4   3 2360.86   48.26   0
  -2  -3   3 1152.51   36.17   0
  -2   0   2 1275.86   43.82   0
  -6  -9   3   40.44   23.42   0
  -2  -5   3  746.74   29.85   0
  -5  -4   4 1196.84   33.48   0
  -5  -7   6  511.58   42.21   0
  -5  -5   9   65.23   27.14   0
  -3  -1  11  110.77   19.57   0
  -3   0  12  144.27   22.39   0
  -3   3  14  351.48   26.18   0
  -2   2  12   21.93   19.84   0
  -2   7  14  368.69   27.35   0
  -2   8  14  407.13   27.53   0
  -2   9  14    9.80   23.73   0
  -1  -3   3 1218.86   40.94   0
  -1  -1   7 1192.95   33.61   0
  -1   9  12  594.53   35.84   0
   0   2   7    8.73   12.23   0
   0   3   8 1701.06   37.87   0
  -3  -5   6  165.49   26.31   0
  -1   3  11  485.72   26.19   0
   0   0   4 1899.49   46.38   0
   0   1   6 1151.86   34.05   0
  -4  -5   8  356.94   32.83   0
  -3   1  13  358.19   27.07   0
  -2   3  13  291.00   24.00   0
  -2  10  14  221.93   35.32   0
   0   4   9 4359.37   57.47   0
  -2   5  14  447.53   27.69   0
  -1  10  12   51.91   32.58   0
   0   3  -1  185.53   29.11   0
   0   9   9  304.50   32.41   0
  -3  -4   8    9.72   23.21   0
  -2  -1  10  517.35   27.15   0
  -2   0  11   19.84   20.87   0
  -1  -2   6  436.96   23.56   0
  -1   4  12  204.29   21.54   0
  -1   7  13  941.17   34.56   0
  -1   8  13  502.10   31.95   0
   0   5  10   31.60   17.19   0
   0   8  10   12.78   21.95   0
  -4  -3  11    8.12   26.74   0
  -2   1  12  565.25   30.19   0
  -1   0   9 1469.34   35.76   0
  -1   1  10 1028.57   31.54   0
   0   0   5 6321.59   76.36   0
   0   2   8 2933.50   48.46   0
   0   5   0   24.66   25.83   0
  -4  -8   2  240.83   38.03   0
  -2   4  14  459.78   24.49   0
  -2   7  15  254.06   26.70   0
  -1  -3   4 1789.88   44.68   0
  -1   2  11   -1.00   19.44   0
  -1   9  13   -2.34   26.56   0
   0   1   7 1540.49   36.37   0
   0   3   9  532.30   25.30   0
  -4  -6   7  790.71   40.96   0
  -3  -1  12  486.38   27.44   0
  -2   2  13  724.93   31.79   0
  -1  -1   8    9.43   16.35   0
  -1   3  12  156.32   23.26   0
  -1   5  13  163.20   24.36   0
   0   4  10  361.77   22.37   0
   0   9  10  711.69   37.97   0
  -5  -7   7  317.65   38.58   0
  -5  -5  10  366.43   33.08   0
  -3  -5   7  898.91   38.35   0
  -3  -3  10  205.75   27.63   0
  -3   0  13  296.96   25.78   0
   0   7  11   51.31   23.30   0
  -3  -6   5  471.74   32.03   0
  -2  -5   4 1095.29   39.20   0
  -2   3  14   82.95   22.06   0
  -1  10  13  540.29   38.17   0
   0   8  11  962.74   37.13   0
  -4  -5   9  469.61   34.21   0
  -1  -2   7 1159.90   33.03   0
  -1   4  13  602.79   26.90   0
   0   0   6   30.03   15.29   0
   0   5  11  888.79   30.18   0
  -5  -6   9   70.98   33.15   0
  -3  -4   9  948.03   38.15   0
  -2  -1  11  344.80   24.60   0
  -2   0  12  698.73   29.68   0
  -1   0  10   34.92   19.86   0
  -1   1  11  305.10   25.02   0
  -1   7  14  116.33   24.73   0
  -1   8  14  149.48   25.78   0
   0   2   9 1571.19   36.05   0
   0   3  10 1405.97   35.24   0
   0   6   1  463.23   48.67   0
  -2  -2  10   42.47   22.35   0
  -2   1  13  233.17   23.92   0
  -1   2  12  832.14   32.54   0
  -1   9  14  521.97   31.67   0
   0  -1   3 2936.53   61.33   0
   0   1   8  228.62   18.56   0
   0   9  11  376.09   34.40   0
  -4  -8   3  236.00   35.76   0
  -2  -4   7   93.54   23.65   0
  -1  -1   9 1165.12   34.63   0
   0  -1   2  203.62   23.64   0
   0  -1   4  916.66   33.09   0
   0   4  11  687.06   27.88   0
   0   7  12 1039.50   36.30   0
   0  10  10  637.91   42.44   0
  -4  -7   6  185.07   36.51   0
  -4  -6   8   27.59   31.04   0
  -2   2  14   90.41   23.96   0
  -1   5  14  222.88   23.70   0
  -1  10  14  310.74   35.93   0
   0   0   7 1411.92   35.46   0
   0   8  12  173.01   26.01   0
  -4  -4  11  215.43   28.03   0
  -3  -5   8  222.73   28.54   0
  -2  -5   5   70.00   22.08   0
  -3  -7   3   91.57   30.25   0
  -3  -6   6  941.30   40.18   0
  -3  -3  11  540.93   32.98   0
  -1  -3   6 2395.37   46.52   0
  -1  -2   8 1424.06   36.04   0
  -1  -1  -3 2515.79   65.31   0
   0  -1   5 1749.57   41.50   0
   0   2  10  349.50   22.98   0
   0   5  12    9.19   18.30   0
   0   9  12  173.94   30.77   0
   0  10  11   32.32   32.71   0
  -4  -5  10    6.31   27.79   0
  -1   4  14   24.84   18.68   0
  -1   7  15  220.66   26.02   0
  -1   8  15  434.88   31.15   0
   0   3  11    3.20   19.01   0
  -3  -4  10  123.79   28.96   0
  -2  -1  12   77.82   20.50   0
  -2   0  13  168.04   23.88   0
  -1   9  15  190.59   28.73   0
   1   4   5 2270.71   56.92   0
   1   4   6 2592.97   54.41   0
   1   6   6 1295.72   47.60   0
   1   6   7  327.83   26.63   0
  -4  -8   4  525.74   41.29   0
  -2  -4   8 1293.16   41.33   0
  -1  -1  10  315.14   24.47   0
  -1   2  13   41.98   22.72   0
   0  -1   6 1188.61   33.83   0
   0   0   8  732.85   27.65   0
   0   7  13   62.05   22.25   0
   0   8  13  442.32   31.08   0
   1   4   7  310.45   21.00   0
  -2  -5   6 1318.53   41.77   0
  -1   3  14  432.12   26.06   0
  -1   5  15  351.01   26.92   0
  -1  10  15   59.50   32.95   0
   0  10  12  594.95   41.31   0
  -4  -7   7  185.82   37.37   0
  -2  -6   1  159.08   30.84   0
  -1  -2   9  113.56   22.02   0
   0  -1   1 3946.61  103.99   0
   0   5  13  838.28   31.80   0
   0   9  13  807.75   38.56   0
   1   3   5  321.12   24.41   0
   1   3   6 1450.53   39.36   0
   1   4   8 2974.92   50.29   0
   1   7   7   39.10   24.07   0
  -4  -6   9  189.49   31.57   0
  -3  -6   7   34.24   28.26   0
  -3  -5   9  171.95   30.22   0
  -2  -6   2 1545.24   53.25   0
   0   1  10  143.88   19.31   0
   0   3  12  536.40   27.54   0
   1   3   7  334.15   21.41   0
   1   7   9  392.63   28.91   0
  -3  -3  12    1.85   25.76   0
  -1   4  15  261.59   24.71   0
   0  -1   7   17.24   16.07   0
   1   4   4 1002.80   45.85   0
   1   6   5  871.22   47.13   0
  -1   0  12   36.65   20.97   0
  -1   1  13  679.46   30.33   0
   0   4  13   -4.72   18.63   0
   0   7  14  614.09   31.48   0
   0   8  14  428.59   31.72   0
   0  10  13   48.80   33.50   0
   1   3   8  520.07   24.63   0
   1   4   9  329.92   21.67   0
   1   7   6 1086.64   50.06   0
  -3  -4  11  387.81   32.78   0
  -2  -5   7  312.48   29.37   0
  -2  -4   9    0.93   25.19   0
  -2  -1  13  358.87   28.80   0
  -1  -1  11  238.02   23.06   0
  -1   2  14  679.28   31.19   0
   0   9  14   69.88   27.34   0
   1   3   4 3726.79   74.03   0
   1   7  10  518.03   30.32   0
  -2  -6   0 1200.34   66.22   0
   0  -2   3  684.74   32.21   0
   0  -2   4 2902.73   54.92   0
   0   1  11  930.75   32.16   0
   0   2  12    7.62   20.12   0
   0   5  14  329.17   26.18   0
   1   2   5 5606.53   76.46   0
   1   2   6   13.88   13.00   0
   1   8   8  976.56   43.96   0
   1   8   9  337.93   29.61   0
  -2  -3  11  102.41   26.46   0
  -1  -2  10  768.62   30.79   0
   0  -2   5  394.01   23.20   0
   0   3  13  401.32   25.79   0
   1   3   9 1007.76   31.35   0
   1   4  10 1204.79   33.53   0
   1   7  11  532.43   30.83   0
  -4  -7   8  252.01   37.36   0
  -3  -6   8  432.33   36.32   0
   0   0  10 1106.00   33.82   0
   0  10  14  238.92   35.06   0
  -4  -6  10  217.98   34.68   0
  -3  -5  10  442.75   34.28   0
  -1   0  13  449.55   26.69   0
   0  -2   6  627.82   26.97   0
   0   4  14  723.07   28.29   0
   0   7  15  168.34   26.53   0
   0   8  15  100.02   26.03   0
   1   2   4 2287.31   54.86   0
   1   2   8  139.14   16.68   0
   1   8   7  814.23   46.07   0
   1   8  11   19.05   24.91   0
  -2  -6   5  605.33   33.99   0
  -1  -1  12  561.83   27.24   0
  -1   1  14    3.13   23.30   0
   0  -1   9  191.69   22.41   0
   0   9  15  307.21   29.11   0
   1   3  10   15.04   16.08   0
  -3  -7   6  441.19   37.44   0
  -2  -5   8  418.01   32.62   0
   0  -2   2 2233.58   59.30   0
   0   1  12  557.49   29.89   0
   1   1   6 2025.48   43.86   0
   1   2   9 1431.50   35.88   0
   1   4  11  727.17   28.43   0
   1   7  12   11.54   23.28   0
  -1  -4   7 1016.66   34.49   0
  -1  -2  11   86.48   22.92   0
   0  -2   7  746.57   28.37   0
   0   0  11    8.73   20.43   0
   0   2  13  766.08   30.66   0
   0   5  15   95.70   24.34   0
   1   1   7 1831.09   39.91   0
   1   8  12  968.48   37.74   0
   1   9  10  636.82   38.63   0
   0   3  14  122.56   21.70   0
   0  10  15  199.89   36.25   0
   1   9  11  660.54   39.73   0
  -3  -6   9  147.68   29.38   0
  -2  -6   6   60.17   27.84   0
   1   1   8 2135.98   42.15   0
   1   2  10  834.23   29.32   0
   1   3  11 1304.23   35.77   0
   1   7  13  894.96   34.52   0
  -3  -5  11   11.19   27.51   0
   0  -2   8  400.05   24.42   0
   0  -1  10 1080.76   34.92   0
   0   4  15   46.59   20.68   0
   1   1   4 2655.62   56.28   0
   1   7   5  612.55   52.36   0
   1   8  13  425.24   31.06   0
   1   9   8   14.29   30.75   0
   1   9  12  857.59   42.37   0
  -3  -7   7  286.34   38.31   0
  -2  -5   9  488.57   34.70   0
  -1  -4   8  184.69   26.33   0
  -1  -1  13    2.27   22.50   0
   0   1  13  106.97   24.12   0
   1   1   9   45.33   17.16   0
   1   3   3  334.70   32.83   0
  -3  -6  -3   96.53   39.11   0
  -2  -4  11  231.79   28.97   0
  -1  -5   4  398.37   29.53   0
   0   0  12  762.07   31.58   0
   0   2  14  194.64   24.91   0
   1   8   6  282.75   44.17   0
   1   9  13   16.59   31.78   0
  -2  -6   7  828.34   39.52   0
  -1  -5   5 1417.93   43.15   0
   0  -3   4 1083.55   36.02   0
   0  -3   5 1793.66   42.40   0
   0  -2   9 1712.05   40.80   0
   1   0   6 2962.71   51.13   0
   1   0   7  125.21   18.18   0
   1   2   3 1284.59   49.31   0
   1   2  11  161.97   22.27   0
   1   3  12  390.52   25.57   0
   1   4  13 1147.38   34.16   0
   1   7  14  102.30   25.58   0
  -3  -8   3  195.96   35.65   0
   0  -3   6   16.24   17.53   0
   1   0   5   93.71   17.39   0
   1   6   4 3166.06  110.33   0
   1   8  14  134.76   27.62   0
   1  10  11  903.47   47.51   0
  -3  -6  10  137.43   31.12   0
  -1  -4   9  525.37   33.04   0
  -1  -3  11  563.39   32.84   0
   1  10  10  196.66   37.44   0
   1  10  12    4.95   32.90   0
  -3  -8   1   75.48   39.34   0
  -3  -8   4  423.73   38.71   0
  -3  -7   8   24.82   33.45   0
  -2  -5  10    4.65   26.95   0
  -1  -5   6   19.48   22.42   0
  -1  -1  -2 3323.61   90.41   0
   0  -3   3 1816.35   48.49   0
  -1   1  -2 5411.58   97.71   0
   0  -2  10   -3.41   19.58   0
   0   0  13  134.63   23.30   0
   0   1  14  402.30   28.20   0
   1   0   4 4759.14   71.77   0
   1   0   9  565.39   26.53   0
   1   3  13  355.94   25.72   0
   1   7  15  243.98   28.70   0
   1  10  13  371.18   39.60   0
  -2  -6   8   47.48   30.49   0
  -1  -5   7  654.88   35.84   0
   1   1   3 2656.15   63.81   0
   1   1  11  130.89   22.61   0
   1   4  14   21.03   19.36   0
   1   6  15   19.42   22.60   0
   1   8  15  310.03   28.11   0
  -1   0  -2  433.67   32.34   0
   0  -1  12   64.69   20.34   0
   1   9   7 1441.99   72.13   0
   1   9  15   20.10   25.62   0
   1  10   9  657.09   51.96   0
   1  10  14  154.12   34.99   0
  -1  -4  10   63.48   25.69   0
   1  -1   6  155.37   18.79   0
  -2  -5  11  477.98   35.33   0
  -2  -3  -3 1358.54   55.80   0
  -1  -3  12    9.13   25.87   0
   0  -2  11  688.45   32.70   0
   1   1  12  327.84   26.86   0
   1   2  13   -4.69   22.96   0
   1   3  14  402.19   26.91   0
   2   6  10 2133.67   46.36   0
  -2  -7   2  495.31   40.30   0
  -2  -6   9  476.25   35.27   0
  -1  -5   1   87.06   28.68   0
  -1  -5   8  403.27   32.02   0
   0  -3   2 5708.90   91.32   0
   1  -1   5 2348.05   47.73   0
   1  -1   8   65.12   18.14   0
   1   4  15  528.26   27.03   0
   1   8  16    5.86   23.90   0
   1  10  15  134.86   37.03   0
   2   4   8   18.72   16.65   0
   2   4   9  709.07   28.07   0
   2   6   9  193.55   22.91   0
   2   6  11  164.14   24.76   0
   0  -1  13  509.01   27.68   0
   1   0  11  601.89   29.64   0
   1   9  16  213.28   29.60   0
   2   4  10  288.35   22.32   0
   2   7  10  377.75   28.70   0
   2   7  11  580.78   33.05   0
  -2  -7   6  314.44   37.92   0
  -1  -4  11  249.66   31.21   0
   2   3   9   85.74   18.01   0
   2   4  11  421.70   25.50   0
   2   6   8 2122.96   50.08   0
   2   6  12  944.21   34.71   0
   2   7   9  582.93   34.02   0
   2   7  12  794.62   35.47   0
   1  -1   4 3832.68   63.18   0
   1   0   3 3011.09   63.83   0
   1   1  13  505.08   30.27   0
   1   2  14  427.52   28.23   0
   1   3  15    9.59   22.01   0
   2   3  10 1540.25   38.02   0
   2   4   7 1935.19   43.92   0
  -3  -8   0 1858.42  110.56   0
  -1  -5   9  202.70   28.96   0
   1  -1  10  512.10   28.72   0
   2   3   7 1170.36   34.72   0
   2   6  13  467.05   29.04   0
   2   7  13    3.60   23.61   0
   2   8  11 1070.76   42.06   0
   2   8  12   93.15   28.66   0
  -2  -7   7  407.92   39.05   0
  -2  -6  10  159.93   31.75   0
  -2  -2  -3 6026.27  102.99   0
   1   0  12   14.72   21.40   0
   2   3  11  268.93   24.60   0
   2   8  10  101.55   26.79   0
   0  -4   8  531.57   32.51   0
   1  -2   6  423.26   24.78   0
   1  -2   7  587.61   26.52   0
   2   2   7  244.08   20.98   0
   2   2  10  574.62   28.05   0
   2   7   8   77.06   25.50   0
   2   8  13  368.68   32.23   0
  -4  -7  -3  534.83   49.10   0
  -1  -6   6  494.22   34.17   0
  -1   3  -1 8780.83  127.50   0
   1  -2   8 1153.17   34.12   0
   1  -1  11  330.90   24.91   0
   1   1  14    6.91   23.45   0
   2   3   6  215.97   22.28   0
   2   4  13   51.69   20.29   0
   2   6  14   10.96   22.86   0
   2   7  14  338.93   29.18   0
  -1  -5  10  559.31   34.63   0
   1  -2   5 1018.00   33.21   0
   1   0  13  445.11   27.29   0
   2   8  14  526.42   34.04   0
   2   9  12  323.75   37.05   0
  -1  -6   7   17.57   27.88   0
   0  -4   9   11.86   25.52   0
   1  -2   9  141.88   22.89   0
   2   1   8  376.07   23.89   0
   2   7  15  144.45   28.20   0
   2   9  11  305.50   37.59   0
   2   9  13  883.40   43.84   0
   2   1   7 2407.40   45.57   0
   2   1  10  128.10   22.39   0
   2   2   6 3141.45   54.30   0
   2   2  12  105.11   22.09   0
   2   3  13  399.63   25.71   0
   2   4  14  630.86   28.52   0
   2   6  15  585.85   31.17   0
   2   8  15   36.19   26.26   0
  -1  -6   8  965.57   44.38   0
   0  -3  12  530.53   33.27   0
   1  -2  10 1027.03   33.43   0
   1  -1   3   53.33   16.44   0
   1  -1  12  476.75   26.69   0
  -1  -5  11    7.59   28.70   0
   0  -4  10  607.45   35.11   0
   1  -2   4  136.28   18.93   0
   2   1  11  573.90   31.74   0
   2   9  10  654.52   41.58   0
   2   9  15  466.62   33.36   0
  -3  -5  -3  621.24   43.96   0
  -2  -7   9   -5.30   36.11   0
  -1  -6   2   25.33   25.76   0
   2   1   6 3246.64   54.25   0
   2   2  13  630.20   31.30   0
   2   3  14  219.98   23.63   0
   2   4  15   30.40   21.05   0
   2   7   7 1995.79   60.55   0
   2   8  16  355.36   31.30   0
   0  -5   6 1094.41   38.41   0
   1  -2  11   76.66   24.46   0
   1  -1  13   11.97   21.27   0
   2   0   8  630.95   28.20   0
   2   0   9  497.51   27.56   0
   2  10  12  724.06   47.76   0
   2  10  13  185.37   39.99   0
   2  10  14  393.77   40.55   0
  -1  -6   9   48.48   29.28   0
   0  -5   5  338.03   28.52   0
   0  -5   7  233.09   29.34   0
   1  -3   6 2031.79   43.84   0
   1  -3   7    3.48   17.38   0
   2   0   7 1999.69   42.91   0
   2   0  10  931.96   33.10   0
   2   1  12  220.86   26.49   0
   2   2   5  129.15   19.23   0
   2   3   5 3689.73   65.80   0
   2   9  16  115.51   31.25   0
   0  -4  11  150.42   28.41   0
   1   1   2 3542.58   87.87   0
   1   2   2 3443.11  100.01   0
   2   2  14   84.99   24.96   0
   2   4   5 1397.26   47.45   0
   2  10  15  402.06   42.18   0
  -2  -8   4  483.74   41.00   0
  -1   2  -1   43.60   25.13   0
   0  -5   4 2739.57   57.89   0
   0  -5   8  388.93   30.48   0
   1  -3   5 1125.76   34.66   0
   2   0   6   17.34   15.69   0
   2   0  11   37.30   22.49   0
   2   1  13  256.68   26.35   0
   2   9   9  186.05   35.03   0
   2  10  11   29.66   36.26   0
  -1  -6  10  249.45   33.44   0
   2   1   5  906.58   33.51   0
   0  -5   9  366.53   32.46   0
   1  -2   3 2460.57   54.44   0
   1   0   2  433.37   32.31   0
   2   0  12  593.24   30.09   0
  -1  -7   6  818.70   45.82   0
   2  -1   8 1688.70   39.58   0
   2  -1   9   66.03   22.14   0
   3   6  11 1105.97   39.18   0
   3   6  12  360.05   30.39   0
   0  -5  10  101.58   30.51   0
   1  -3   4 1354.55   39.62   0
   2  -1   7   38.80   18.27   0
   2  -1  10  677.56   31.59   0
   3   4  10  748.74   30.39   0
   3   4  11  366.48   25.28   0
   3   6  13  213.42   27.70   0
   3   7  12  100.36   26.15   0
   3   7  13  513.94   32.55   0
  -1  -7   7  656.57   42.93   0
  -1  -5   0 3862.11  115.72   0
   0  -5   3  860.45   38.41   0
   2   0  13  122.72   25.46   0
   2  10  10  685.33   52.34   0
   3   3  10   11.09   20.44   0
   3   3  11 1332.59   38.05   0
   3   4   9   38.79   18.15   0
   3   6  10   55.30   20.65   0
   3   6  14  456.59   31.52   0
   3   7  11 1412.04   44.08   0
   3   7  14   58.68   27.94   0
   2  -1   6 2242.56   45.69   0
   2  -1  11  313.09   24.85   0
   3   3   9 1828.54   41.26   0
   3   3  12   77.44   22.79   0
   3   4  13  529.28   27.64   0
   3   8  13  267.47   33.31   0
  -1  -7   8  158.20   36.78   0
   1  -4   8   -5.85   24.06   0
   1  -3  12   72.13   27.32   0
   3   4  14   11.53   20.54   0
   3   6   9 2297.96   51.95   0
   3   6  15    4.13   25.78   0
   3   7  10  599.07   34.50   0
   3   7  15  355.73   30.33   0
   3   8  12  805.81   39.90   0
   3   8  14   95.92   29.45   0
  -1  -6   1  912.98   49.61   0
   0  -5  11  335.33   33.47   0
   1  -4   9 1073.02   39.31   0
   1  -1   2 5405.58   91.59   0
   2  -1  12   76.45   21.87   0
   3   2   9 1566.19   38.28   0
   3   2  10  996.35   34.33   0
   3   2  11  239.78   25.24   0
   3   3  13  326.13   26.09   0
   3   4   8 1544.36   40.65   0
   3   8  15  366.98   32.46   0
  -3  -6  -2  871.12   62.85   0
  -1  -7   3    9.66   29.41   0
  -1  -7   9  442.89   41.85   0
   0  -6   6  392.59   34.32   0
   0  -6   7  844.53   40.50   0
   2  -2   8  818.25   31.84   0
   2  -2   9 1073.84   34.63   0
   2   8   7  660.46   49.44   0
   3   2  12  789.29   33.26   0
   3   3   8 1277.66   36.22   0
   3   8  11    8.72   28.84   0
   0  -6   5  820.16   38.86   0
   0  -6   8   17.60   28.80   0
   1  -4  10   39.69   26.70   0
   2  -2   7  288.15   23.61   0
   2  -2  10    8.71   20.48   0
   2  -1   5 2275.27   46.66   0
   2   1   4 5746.12   80.25   0
   3   2   8   64.45   18.69   0
   3   3  14  432.95   29.88   0
   3   9  13   28.36   33.31   0
  -1   1  -1  161.35   28.04   0
   1  -3   3 1809.22   47.22   0
   1   3   2   31.95   33.72   0
   2   7   6  126.92   33.86   0
   2   9   8 1959.81   73.55   0
   3   2  13   21.27   21.40   0
   3   9  15   26.38   31.16   0
   0  -6   9  580.50   37.32   0
   1  -4  11  408.05   34.17   0
   2  -2   6 3420.72   55.06   0
   2  -2  11  598.80   32.17   0
   3   1   9   16.67   20.14   0
   3   1  11  251.19   27.36   0
   3   7   9  363.42   30.30   0
   3   8  10  744.15   41.96   0
   3   9  12  384.41   39.29   0
   2   0   4  692.40   30.72   0
   3   1   8 1337.22   36.08   0
   3   1  12  544.12   31.17   0
   3   2  14  569.26   31.92   0
   3   3   7  887.52   32.18   0
   3   4   7  696.14   30.45   0
   3   6   8  177.20   25.23   0
   3   2   7 1664.67   40.76   0
   0  -6  10  161.54   31.81   0
   1  -2   2 3061.04   66.74   0
   3   1  13  461.97   29.73   0
   3   9  11  557.17   43.22   0
   3  10  14  285.10   42.98   0
  -2  -3  -2 3748.61  101.77   0
   1  -5   7  625.97   35.78   0
   1  -5   8  213.24   29.95   0
   2  -2   5  120.17   19.05   0
   2  10   9  414.63   54.71   0
   3   0   9 1031.54   34.96   0
   3   0  11  979.71   35.20   0
   3   1   7  681.46   28.91   0
   3  10  13  533.88   47.45   0
  -1  -7   2 1518.99   58.08   0
   1  -5   6  121.85   28.45   0
   1  -5   9  339.24   34.68   0
   2  -1   4  517.33   27.64   0
   2   4   4 3982.31   87.23   0
   2   6   5 2905.01   85.38   0
   3   0   8  859.16   31.45   0
   3   0  12   18.28   22.48   0
  -4  -7  -2 1534.80   70.73   0
  -2  -2  -2  976.24   51.34   0
  -1   5   1   19.35   33.47   0
   1  -5  10  539.48   35.71   0
   2  -3   6  391.85   26.39   0
   3   2   6  379.54   24.92   0
   3   3   6 2952.98   55.74   0
   3   7   8 1004.25   42.54   0
   3  10  12   51.36   38.38   0
   3  -1   9  894.09   34.17   0
   3  -1  10  270.36   26.65   0
   3   0   7  120.59   20.66   0
   3   9  10   77.21   34.46   0
   4   6  13  615.69   34.34   0
  -1   0  -1 3924.83  110.86   0
   0  -7   6  164.72   36.26   0
   0  -7   7  308.24   37.41   0
   3  -1  11  418.91   28.43   0
   3   1   6  206.57   21.12   0
   3   4   6 1037.33   37.57   0
   4   4  11  862.55   34.70   0
   4   4  12  570.18   28.98   0
   4   4  13   62.56   23.17   0
   4   6  12  412.98   31.17   0
   4   6  14   86.15   27.86   0
   4   7  13   42.70   29.27   0
  -2  -8   1  956.12   65.26   0
  -1  -8   4  267.31   35.89   0
  -1   3   0 2614.19   82.50   0
   0  -7   8  263.85   39.13   0
   3  -1   8  251.77   25.40   0
   3  -1  12  477.04   27.73   0
   4   3  12  822.01   31.60   0
   4   4  14  383.34   29.13   0
   4   6  11  132.09   28.30   0
   4   7  15  202.51   29.35   0
   0  -7   5 1062.94   46.63   0
   0  -7   9   23.53   37.78   0
   2  -3   5 1840.82   44.07   0
   2  -2   4 2468.62   50.44   0
   4   3  11   23.02   21.64   0
   4   3  13  234.27   24.33   0
   4   4  10  194.32   24.05   0
   4   8  14  254.37   31.73   0
   1  -5   4  356.52   27.91   0
   1  -3   2   53.48   19.57   0
   2  -4   9   -3.55   25.52   0
   3  -1   7 1143.17   35.21   0
   3  10  11  716.96   51.57   0
   4   3  10 1242.35   37.28   0
   4   8  13  344.75   34.28   0
   4   8  15   46.29   29.13   0
   2  -4  10  650.79   36.90   0
   2   1   3   27.83   15.72   0
   4   2  11  714.03   32.50   0
   4   2  12   89.87   24.23   0
   4   6  10  829.44   38.13   0
   4   7  11  186.48   30.11   0
   1  -6   7   60.76   29.10   0
   1  -6   8  669.59   38.62   0
   3  -2   9  265.28   25.52   0
   3  -2  10 1128.15   35.96   0
   4   2  10  653.22   29.93   0
   4   2  13  639.43   32.25   0
   4   3   9  367.73   26.87   0
   4   4   9 1440.10   38.64   0
   4   8  12  118.26   33.88   0
   4   9  15  372.22   40.18   0
  -1  -8   3  444.46   40.07   0
   1  -6   9   50.35   29.75   0
   2   2   3 5683.96   94.76   0
   3  -2   8  384.66   27.22   0
   3  -2  11   16.62   23.61   0
   4   2   9  281.13   25.84   0
   4   9  14   22.84   35.12   0
  -1  -1  -1 4650.76  142.54   0
   1  -6  10  185.34   34.30   0
   2  -1   3 2254.53   52.13   0
   3  -1   6  420.03   26.47   0
   3   1   5 1950.67   45.38   0
   4   1  10   25.68   24.58   0
   4   1  11  591.03   32.28   0
   4   1  12  208.85   27.94   0
   4   9  13  472.70   43.88   0
   3  -2   7 1532.24   40.07   0
   3   8   8 1044.26   51.86   0
   4   1  13  155.63   28.30   0
   4   7  10  700.25   38.89   0
   4   8  11  994.94   45.28   0
  -1  -2  -1   36.64   31.92   0
   3   0   5  326.11   23.55   0
   3   3   5   56.97   17.86   0
   3   7   7   47.50   28.73   0
   3   9   9  726.89   47.83   0
   4   1   9  842.45   33.56   0
   4   3   8 1402.89   38.20   0
   4   4   8   49.61   21.08   0
   4   6   9  246.96   28.81   0
   1  -5   3  490.43   33.33   0
   4   0  11    0.85   23.66   0
   4   2   8 1978.92   43.58   0
   4   9  12  253.26   39.68   0
  -1  -7   1 1611.57   66.82   0
   4   0  10  622.04   32.75   0
   4   0  12  878.61   35.49   0
   4   1   8  276.04   25.91   0
   2  -5   7  160.11   29.59   0
   2  -5  10   49.09   28.96   0
   2  -2   3  626.27   30.36   0
   3  -3   8 1503.26   42.80   0
   3  -2   6  307.67   23.99   0
   3  10  10  134.45   44.29   0
   4   0   9  355.91   28.51   0
   2   3   3 1305.07   54.10   0
   2   9   7  110.98   57.59   0
   3  -1   5 2106.28   45.70   0
   3   4   5  797.25   38.46   0
  -3  -4  -2  473.98   39.61   0
   1  -6   4  446.44   33.51   0
   1  -1   1  146.33   27.18   0
   2  -5   6  955.61   39.42   0
   2   8   6 1312.34   84.34   0
   3  -3   7   13.42   21.14   0
   3   6   6 1063.92   45.99   0
   4   0   8  286.93   26.44   0
   4   2   7   16.18   18.89   0
   4   3   7 1148.51   36.13   0
   4   7   9 1228.52   45.26   0
   4   8  10   22.69   32.42   0
  -1  -6   0 1182.12   72.11   0
   1  -7   8  141.21   37.71   0
   4  -1  10  582.48   31.40   0
   4  -1  11  385.28   28.17   0
   4   9  11  456.24   42.54   0
   5   4  13  720.88   33.92   0
   5   6  13  321.98   31.89   0
  -1  -8   2  857.54   52.06   0
   1  -7   7  134.48   34.97   0
   1  -7   9  250.45   39.16   0
   1   0   1 4009.38  103.77   0
   4  -1   9   52.14   24.58   0
   4   1   7  306.12   23.77   0
   4   4   7 2140.24   47.60   0
   4   6   8 1053.69   41.50   0
   5   4  12  321.08   28.54   0
   5   7  14   63.82   30.18   0
   1  -7   6  618.03   44.68   0
   1  -2   1   47.57   21.13   0
   2  -3   3  184.12   22.01   0
   3  -3   6  858.42   34.37   0
   3  -2   5 4163.63   61.92   0
   5   3  12  124.52   23.10   0
   5   3  13  392.01   29.33   0
   5   4  11  340.43   27.90   0
   5   6  12  279.74   30.99   0
   5   7  13  819.99   41.45   0
   2  -5   5   -1.71   25.11   0
   3  -4   9  594.83   35.22   0
   3  -4  10   12.81   28.55   0
   3   1   4   50.55   19.11   0
   4  -1   8 1085.70   37.17   0
   4   0   7 1850.87   43.03   0
   4  10  12  993.91   55.36   0
   5   3  11  694.90   31.39   0
   5   8  14  208.75   31.44   0
   3  -4   8  173.40   28.09   0
   3   0   4  931.05   34.56   0
   5   2  11  201.43   27.98   0
   5   2  12  510.99   30.32   0
   5   6  11  642.50   35.78   0
   5   7  12   68.10   31.21   0
   1  -7   5   15.59   33.10   0
   2  -6   8    2.93   30.31   0
   2  -6   9  497.70   36.51   0
   4  -2  10   23.79   21.88   0
   4  -2  11  397.95   31.89   0
   5   3  10  100.05   23.44   0
   5   4  10  804.20   33.18   0
   5   8  13  202.08   32.82   0
  -1   2   0 2399.18   82.98   0
   1  -6   3 1728.93   51.22   0
   1  -5   2 1200.52   45.05   0
   2  -6   7  535.33   38.02   0
   2   7   5 1443.81   85.74   0
   4  -2   9  795.61   32.91   0
   4  -1   7  364.16   27.52   0
   4   1   6  564.94   29.16   0
   4   8   9  358.63   40.54   0
   5   2  10  342.14   28.38   0
   5   9  15   23.56   34.28   0
   1  -3   1 8519.28  118.55   0
   3  -3   5  159.40   22.15   0
   4   3   6  537.92   28.13   0
   4   9  10  841.23   52.50   0
   5   1  11   49.34   25.83   0
   5   1  12  312.89   29.59   0
   5   7  11  425.22   34.36   0
   5   9  14  517.17   45.90   0
   0  -7   2  485.46   40.96   0
   2  -6   6  165.56   29.36   0
   4  -2   8  435.58   28.59   0
   4   0   6   63.40   20.43   0
   4   7   8   94.30   29.01   0
   5   1  10  582.44   33.09   0
   5   3   9  791.18   32.84   0
   5   4   9  158.41   25.09   0
   5   6  10   -0.08   27.71   0
   5   8  12  675.51   43.09   0
  -2   0  -1  636.04   38.27   0
   0  -6   1  517.46   40.28   0
   2  -1   2   51.21   18.10   0
   2   0   2  585.96   33.91   0
   3  -2   4   66.37   19.12   0
   3   9   8   30.84   42.72   0
   5   2   9  938.60   35.65   0
   1  -7   4  798.30   45.08   0
   3  -5   9  203.26   31.87   0
   4  -2   7  312.57   27.43   0
   4   4   6  376.21   27.75   0
   4  10  11   58.90   43.32   0
   5   0  11  446.84   31.67   0
   5   1   9   73.95   25.03   0
   5   9  13  211.85   41.04   0
   3  -5   8  189.33   32.78   0
   4  -1   6 1060.03   34.78   0
   4   6   7  797.14   39.08   0
   5   0  10  100.55   27.92   0
   1   1   1 5278.37  141.88   0
   2  -6   5  508.83   35.30   0
   2   1   2 4740.57   90.67   0
   5   7  10  531.11   35.87   0
   5   8  11   11.60   33.77   0
   0  -8   3  451.66   39.27   0
   3  -5   7  797.23   39.09   0
   3   7   6 1900.83   70.31   0
   5   0   9  534.46   33.43   0
   5   2   8    6.08   23.17   0
   5   3   8  636.60   31.23   0
   5   9  12  540.21   49.56   0
  -3  -8   0 1791.04  117.89   0
   1  -8   6   49.72   39.28   0
   3  -3   4  805.06   31.99   0
   4   1   5  256.42   24.46   0
   5  -1  11  348.36   31.00   0
   5   4   8 1711.13   43.98   0
   5   6   9  724.71   38.43   0
   2  -3   2 2222.04   53.16   0
   4   0   5 1892.16   43.98   0
   4   2   5 1012.43   36.18   0
   5  -1  10  106.39   24.35   0
   6   5  13  342.13   30.60   0
   2  -7   7  362.25   39.80   0
   3  -5   6    5.43   27.98   0
   5  -1   9 1045.99   36.48   0
   6   6  13  231.33   30.82   0
   2  -5   3  591.10   32.86   0
   3  -1   3   59.10   19.66   0
   3   0   3 1019.86   36.55   0
   4  -4   9   -3.35   29.20   0
   6   3  12  541.53   30.54   0
   6   7  13    0.07   30.11   0
   2  -7   6   27.74   34.33   0
   3   1   3 5075.85   79.04   0
   4   8   8  608.90   47.73   0
   4   9   9   21.10   38.46   0
   5   1   7 1017.31   36.27   0
   5   2   7 1920.04   45.90   0
   6   3  11   12.24   21.58   0
   6   6  12  524.92   35.88   0
  -2  -1  -1 1750.14   63.10   0
   3  -6   8  320.01   35.39   0
   4  -3   6   62.53   23.30   0
   5  -1   8    5.68   24.47   0
   5   3   7  409.54   27.73   0
   5   7   9  177.36   33.00   0
   5   9  11  479.85   49.43   0
   6   2  11  299.86   28.23   0
   6   8  14  194.54   34.35   0
  -1  -8   1    8.95   38.22   0
  -1   5   2 1120.91   58.11   0
   3  -2   3 2397.65   50.78   0
   3   6   5  435.68   41.39   0
   4  -2   5    3.31   19.13   0
   5  -2   9  105.81   25.58   0
   5   0   7   68.03   25.68   0
   6   7  12  664.32   40.26   0
   2   2   2  933.34   48.03   0
   3  -6   7   93.65   32.07   0
   5   4   7  274.62   25.17   0
   5   6   8  522.18   35.50   0
   6   1  11  512.48   32.12   0
   6   2  10  366.33   28.50   0
   6   3  10  502.33   28.85   0
   6   6  11   96.80   29.21   0
   6   8  13  337.43   35.34   0
  -3  -6  -1  794.34   61.14   0
   2  -7   5  857.90   45.62   0
   2   6   4  469.47   58.74   0
   3   2   3 1313.60   45.43   0
   0  -5   0   38.78   31.09   0
   3  -3   3 2324.62   49.58   0
   5  -2   8  429.01   29.26   0
   6   1  10    7.39   25.54   0
   6   9  14   -2.44   39.30   0
   0  -8   2   46.79   31.25   0
   0  -7   1  520.87   44.45   0
   4  -3   5  840.07   34.71   0
   4   0   4 1659.06   42.54   0
   4   6   6  516.16   39.34   0
   5   1   6  354.23   26.55   0
   6   2   9   98.27   26.88   0
   6   3   9  250.62   26.34   0
   6   7  11  405.98   37.29   0
   6   8  12   42.89   33.39   0
   2  -6   3    4.55   25.92   0
   4  -5   8  351.43   35.54   0
   4  -1   4  304.56   25.81   0
   5   0   6 1622.88   42.80   0
   5   2   6  157.48   22.67   0
   6   6  10 1088.74   43.10   0
   3  -5   4  527.72   33.83   0
   5  -2   7  445.11   30.03   0
   5   3   6 1383.64   42.31   0
   6   0  10  428.80   31.08   0
   6   1   9  965.48   37.18   0
   6   9  13  373.78   46.78   0
  -2  -2  -1 5126.73  112.57   0
   2  -7   4   11.20   30.23   0
   4   2   4 1478.89   43.36   0
   5  -1   6  820.83   35.15   0
   5   8   9  116.94   38.55   0
   5   9  10  171.29   44.21   0
  -1   1   0 3330.66  102.34   0
   3  -6   5  412.81   35.02   0
   4  -5   7   29.29   28.83   0
   4  -2   4 2872.06   53.11   0
   5   7   8 1617.44   54.62   0
   6   0   9  356.10   31.45   0
  -1  -7   0  140.88   48.13   0
   2  -8   6  498.07   42.33   0
   3  -7   8  116.68   34.39   0
   6   1   8  263.70   28.03   0
   6   2   8 1112.22   38.32   0
   6   3   8  445.65   30.27   0
   6   7  10  208.74   33.16   0
   3  -7   7  251.66   34.21   0
   3   3   3 3080.71   72.94   0
   5  -3   7   12.19   26.41   0
   5  -2   6   31.48   25.85   0
   6   9  12  213.33   44.47   0
  -3  -5  -1   23.51   27.87   0
  -2  -3  -1 1686.34   72.50   0
  -1   3   1 4208.55  104.35   0
   2  -2   1 4453.76   80.56   0
   4  -3   4  866.05   33.59   0
   6  -1   9    8.82   25.42   0
   6   0   8  267.84   30.94   0
   6   6   9   55.81   29.92   0
   7   5  12  478.02   33.25   0
   0   8   5   20.63   47.58   0
   2  -1   1 3790.15   78.09   0
   3  -1   2 2678.23   57.48   0
   4   3   4   20.97   19.27   0
   5   0   5   63.05   21.24   0
   5   1   5  692.55   31.43   0
   2  -8   5  216.73   38.79   0
   2  -3   1  128.69   22.98   0
   3  -7   6  531.15   38.06   0
   3  -6   4  141.86   30.00   0
   3   0   2  964.40   38.50   0
   4  -6   8    4.23   30.96   0
   5  -4   8  125.86   29.72   0
   7   3  11  497.43   31.75   0
   7   6  12  142.11   30.29   0
  -3  -4  -1 2568.00   74.74   0
   3  -5   3  608.22   33.91   0
   5  -3   6  762.79   34.33   0
   5  -1   5  146.75   25.28   0
   6  -1   8  748.89   34.93   0
   6   1   7  772.38   35.21   0
   6   2   7   31.28   25.17   0
   7   5  11  112.78   29.74   0
   3  -3   2  345.52   25.65   0
   4  -5   5  188.78   30.67   0
   4   9   8 1134.45   65.05   0
   6  -2   9  308.41   28.10   0
   6   0   7  839.91   38.02   0
   6   3   7 1317.37   40.34   0
   7   3  10  149.88   25.54   0
   7   7  12   77.48   31.96   0
   0  -6   0 1826.51   69.94   0
   3  -7   5   44.53   34.53   0
   4  -1   3 2589.56   52.47   0
   4   0   3  665.02   31.01   0
   5  -2   5  537.67   31.29   0
   5   3   5   11.80   21.45   0
   6   7   9  747.80   41.74   0
   6   8  10   97.36   39.79   0
   6   9  11  154.52   45.87   0
   7   2  10  142.85   28.54   0
   7   8  13  165.31   36.01   0
   2   0   1  577.00   37.18   0
   3   9   7 1477.45   88.17   0
   4  -2   3 1416.01   40.64   0
   6  -2   8  394.65   28.95   0
   6  -1   7  119.37   25.76   0
   2  -8   4  358.17   40.77   0
   3   1   2  790.11   37.30   0
   3   8   6   82.47   46.43   0
   4  -6   6  225.33   34.09   0
   4   1   3 1090.06   38.81   0
   4   7   6  312.50   39.66   0
   5   8   8  487.30   45.39   0
   5   9   9  989.04   59.52   0
   6   6   8  895.92   42.55   0
   7   5  10  457.96   34.42   0
   7   2   9  344.35   28.33   0
   7   3   9  409.27   28.50   0
   7   7  11  414.28   36.77   0
   1  -8   2  933.18   47.78   0
   4  -3   3  179.17   22.13   0
   5   7   7    3.88   29.74   0
   6  -2   7  122.62   24.26   0
   7   1   9   23.60   26.11   0
   7   6  10    4.59   31.59   0
   7   8  12  504.42   40.52   0
   5  -5   7  367.91   34.64   0
   5   0   4 1669.11   43.07   0
   6   0   6  130.25   27.90   0
   6   2   6  534.05   32.37   0
   3  -8   6   23.24   39.17   0
   3  -7   4  819.61   43.77   0
   4  -6   5  325.25   36.48   0
   4   2   3 3030.56   61.51   0
   5   1   4    8.15   20.66   0
   6  -1   6  527.13   31.95   0
   6   5   7    7.96   26.57   0
   7   0   9  212.11   29.82   0
   7   5   9  542.76   37.35   0
   3   7   5  410.78   50.31   0
   4  -7   7  238.17   35.57   0
   5  -2   4  363.89   29.33   0
   6   3   6   22.68   23.33   0
   7   2   8   22.86   23.69   0
   2  -7   2  784.40   40.18   0
   5  -5   6  -18.85   31.06   0
   5   2   4 2303.14   52.08   0
   6  -3   7  495.42   33.28   0
   6   8   9  919.68   54.38   0
   6   9  10  594.60   53.92   0
   7   1   8  347.13   29.53   0
   7   3   8  304.13   28.11   0
   7   8  11   21.09   36.03   0
   1   2   1   62.72   35.35   0
   3   2   2 4016.32   80.65   0
   6  -2   6  729.02   33.81   0
   6   7   8   65.11   33.73   0
   7   0   8  455.40   32.64   0
   7   7  10  548.17   41.32   0
   7   9  12  226.07   49.09   0
   3  -8   5  426.29   43.38   0
   4  -7   6  126.12   32.31   0
   5  -3   4  359.47   28.68   0
   7   6   9  675.05   39.98   0
  -2   0   0  101.74   21.38   0
   2   1   1 1730.25   61.52   0
   4  -6   4  930.55   41.50   0
   6   0   5  922.08   37.49   0
   6   6   7  735.70   44.15   0
   7  -1   8   54.61   26.42   0
   1  -1   0 3617.65   98.90   0
   3  -7   3  213.68   34.28   0
   6  -3   6   65.49   23.57   0
   6  -1   5  863.92   35.96   0
   6   1   5  162.81   24.49   0
   7   1   7  350.54   31.11   0
   2  -6   1  273.09   29.16   0
   3  -2   1 1638.62   46.59   0
   4  -7   5  509.76   39.29   0
   4  -2   2  761.46   32.79   0
   4  -1   2  207.58   23.69   0
   4   3   3 2276.77   57.87   0
   5  -5   5  764.69   38.39   0
   6   2   5  500.08   32.26   0
   7   0   7   -0.69   26.49   0
   7   2   7  593.41   32.27   0
   7   5   8  215.64   31.95   0
   3  -6   2  214.14   29.12   0
   3  -3   1 1363.50   42.22   0
   4  -3   2 1883.09   46.32   0
   6  -2   5   -2.01   24.37   0
   7   3   7  152.24   25.60   0
   3  -1   1   23.02   20.04   0
   4   0   2 4362.26   68.71   0
   5  -1   3   14.56   20.88   0
   7  -1   7  425.69   30.42   0
   2  -2   5  111.33   34.04   0
   3   0   0  258.33   22.65   0
   3   1  -1    9.13   15.02   0
   4  -1   3 2737.90   55.21   0
   5   0   2  238.66   23.06   0
   6   0   9  397.35   44.39   0
   7   1  10  538.91   46.01   0
   8   2   5  384.32   29.46   0
   8   2  10  255.26   37.28   0
   9   4   4   -9.55   26.13   0
  -2   0   2 1300.98   49.15   0
   5   5  -2  999.69   42.94   0
   5   8  -2  560.87   49.10   0
   7   1   4    5.67   22.38   0
   2  -2   7  305.76   47.39   0
   5  -1   6  793.97   40.41   0
   8   7   0  261.87   37.61   0
   8   8   0    8.46   33.98   0
   8   9   0  131.34   45.42   0
   9   3   6  377.43   34.00   0
   1  -2   4  162.79   38.93   0
   2  -1   1 3783.32   76.37   0
   5  -1   5  183.38   29.02   0
   5   1   0 1018.53   33.77   0
   6   2   0  369.07   27.36   0
   7   7  -1  334.57   37.43   0
   7   8  -1   64.04   41.00   0
   8   2   4  183.36   25.15   0
   2   2  -2 4953.08   95.57   0
   5   2  -1 2369.23   49.45   0
   7   1   3 1083.85   39.73   0
   7   6  -1  964.71   44.23   0
   7   9  -1  481.25   56.30   0
   8   3   2  623.83   34.41   0
   8   4   1  332.72   28.74   0
   8   6   0  450.52   36.03   0
   9   3   5    1.86   23.61   0
   9   4   3  391.44   32.07   0
   9   8   1   17.35   31.25   0
   6   0   3 1017.97   35.02   0
   6   1   1  925.16   33.40   0
   9   7   1  313.93   36.11   0
   3  -2   6  329.46   39.56   0
   3   2  -2 2660.68   59.58   0
   4  -1   2  229.58   21.75   0
   4   1  -1 2728.56   53.88   0
   5   0   1 1961.97   44.57   0
   6   3  -1   38.87   20.24   0
   7   2   1   91.97   24.64   0
   7   3   0   43.35   22.97   0
   7   5  -1  143.04   31.46   0
   8   2   3  400.52   29.76   0
   9   3   4  243.39   29.28   0
   3  -1   1   26.02   17.94   0
   4   0   0 4556.33   66.88   0
   6   6  -2  951.50   45.48   0
   6   7  -2  192.45   41.70   0
   2  -2   8  832.40   72.09   0
   3  -2   7 1510.40   63.22   0
   6   8  -2   78.72   42.75   0
   8   1   6  475.47   36.18   0
   8   1   7  111.11   33.92   0
   8   1   8  131.59   33.63   0
   5  -1   3   15.82   18.59   0
   6   5  -2  516.60   36.12   0
   7   0   6  552.20   36.86   0
   7   0   7   -5.37   31.95   0
   7   1   2  592.73   31.82   0
   8   3   1   18.93   24.18   0
   9   4   2   84.80   26.11   0
  -1   0   1 5784.86  131.11   0
  -1   1   0 3172.33   92.38   0
   4   2  -2 2033.96   48.03   0
   7   0   5  251.54   30.75   0
   7   0   8  457.60   39.13   0
   8   1   9  418.94   39.09   0
   8   2   2   31.44   27.89   0
   9   3   3  141.27   29.46   0
   9   5   1   14.61   26.23   0
   8   4   0  133.76   25.33   0
   9   2   5  198.83   32.83   0
   3   5  -3 1519.85   60.08   0
   6  -1   6  506.91   37.81   0
   6   1   0  295.44   23.97   0
   6   2  -1  974.75   34.21   0
   7   0   9  189.48   42.30   0
   8   1   4  912.47   35.54   0
   8   7  -1  257.21   38.03   0
   8   8  -1  280.75   44.34   0
   9   7   0  105.21   35.52   0
   9   8   0  200.83   37.41   0
  -1   4  -1 2387.12   71.08   0
   1   2  -2   33.23   31.65   0
   3  -2   8  386.59   51.46   0
   3   6  -3 1112.13   60.93   0
   5  -1   2 1375.36   40.04   0
   5   1  -1  315.78   23.95   0
   6  -1   5  879.15   40.98   0
   6  -1   7  121.34   36.29   0
   8   6  -1   13.48   31.35   0
   8   9  -1   14.74   52.12   0
   4  -2   5   18.49   26.35   0
   4   5  -3  741.02   41.23   0
   4   6  -3  376.68   39.42   0
   5   0   0    3.90   16.91   0
   6   0   1   27.06   20.22   0
   7   0   3  807.19   35.25   0
   7   1   1  211.36   27.06   0
   7   3  -1  690.19   33.37   0
   8   1   3  127.80   26.47   0
   9   2   4  279.84   27.44   0
   9   3   2   68.43   27.05   0
   9   4   1  313.46   27.24   0
   9   6   0   26.29   32.71   0
  -1  -1   8   18.17   43.48   0
   3   0  -1 1281.73   40.31   0
   3   4  -3   74.11   26.57   0
   4  -2   4 2982.57   63.84   0
   6  -1   8  768.15   49.23   0
   7   6  -2  152.60   33.28   0
   8   2   1  497.43   33.60   0
   8   5  -1  533.46   37.05   0
   4   4  -3 1847.10   52.86   0
   4   7  -3  661.26   53.83   0
   5   2  -2  512.47   27.15   0
   7   8  -2  400.33   51.20   0
   8   3   0  673.21   33.25   0
   3   1  -2 7008.27   92.05   0
   5   6  -3 1008.32   48.96   0
   7   5  -2  276.75   34.38   0
   9   2   3    7.76   24.61   0
   5   5  -3 1288.82   46.71   0
   7   0   2   57.04   24.98   0
   8   1   2  423.02   30.92   0
   2  -1   0 1648.59   50.37   0
   3   7  -3  116.67   53.72   0
   4  -2   8  461.82   47.51   0
   4   1  -2   85.33   19.26   0
   5  -1   1  373.31   25.39   0
   5   7  -3   10.16   37.03   0
   6   1  -1 1365.62   38.41   0
   8   0   5  337.30   35.49   0
   8   0   6   33.12   31.72   0
   8   0   7  562.90   39.41   0
   9   1   6   30.93   30.43   0
   9   3   1  587.80   33.06   0
   2   1  -2   79.72   21.10   0
   3  -2   2 1524.75   46.36   0
   3   3  -3 1134.17   45.32   0
   5  -2   5  539.47   37.37   0
   5   4  -3    2.95   22.19   0
   6  -1   2   67.97   23.51   0
   6   0   0 1338.73   38.65   0
   7   2  -1  409.55   30.33   0
   8   0   8   43.16   34.87   0
   9   4   0  296.72   30.47   0
   2   5  -3  767.47   68.63   0
   4  -1   0 1058.51   35.55   0
   5  -2   4  335.99   32.18   0
   5  -2   6   35.45   32.97   0
   7  -1   6  271.81   36.26   0
   8   2   0  160.77   27.67   0
   9   1   4    6.58   29.41   0
   9   7  -1   50.59   34.65   0
   9   8  -1   33.78   40.11   0
   2   4  -3 2398.00   87.16   0
   5   0  -1 2445.19   48.23   0
   6   2  -2 1643.49   42.62   0
   6   6  -3  236.22   39.68   0
   7  -1   5  262.81   31.79   0
   7  -1   7  397.42   42.70   0
   7   0   1  893.09   35.49   0
   9   6  -1  335.00   37.53   0
   4  -2   2  780.78   32.67   0
   5   1  -2 1821.55   43.66   0
   6   5  -3   28.36   29.53   0
   6   7  -3  803.23   53.83   0
   7  -1   4  694.13   37.83   0
   8   0   3  117.50   24.72   0
   8   3  -1   86.23   24.26   0
   8   6  -2  509.96   41.58   0
   7  -1   8   36.14   41.00   0
   8   8  -2  111.03   49.20   0
   9   1   3  404.24   29.37   0
   9   2   1   95.09   29.04   0
   9   3   0   10.16   25.46   0
   9   5  -1  155.36   34.75   0
  -1  -1   5 1169.58   63.12   0
   5  -1   0 1443.36   39.03   0
   6  -1   1  834.42   33.63   0
   6   4  -3  704.78   37.73   0
   8   5  -2  413.50   36.79   0
   7   1  -1   31.80   24.04   0
   8   0   2 1085.36   37.50   0
   3  -2   1 1581.33   44.18   0
   6  -2   5    1.79   30.68   0
   7   0   0  113.04   25.74   0
   8   1   0  101.51   28.68   0
   8   2  -1  364.26   30.97   0
   8   4  -2   11.52   30.94   0
   9   1   2  217.00   28.66   0
   1   0  -1 6885.19  132.50   0
   4  -2   1 1009.93   34.64   0
   6  -2   4  856.66   42.37   0
   6  -2   6  696.96   44.33   0
   6   1  -2  113.80   21.36   0
   7   2  -2   75.56   23.53   0
   7   5  -3  640.90   41.57   0
  -1   2   0 2333.90   73.26   0
   2   3  -3 1159.55   57.02   0
   4   0  -2 1905.38   45.74   0
   6  -2   7   98.96   41.69   0
   7   7  -3   21.87   45.18   0
   9   0   5   49.72   30.29   0
   9   2   0  274.92   30.48   0
   2  -2   1 4362.42   78.46   0
   3   0  -2 2557.38   56.24   0
   6  -1   0 1287.41   38.29   0
   7   4  -3   52.09   29.67   0
   8  -1   5  310.92   36.36   0
   8  -1   6  143.63   33.94   0
   8   0   1   -9.36   25.72   0
   1  -1   0 3495.83   90.69   0
   5  -2   1  354.65   25.99   0
   7  -1   1  562.95   31.62   0
   8  -1   4   17.29   29.94   0
   8  -1   7  152.14   36.40   0
   9   1   1  212.95   29.37   0
   9   3  -1  480.11   33.36   0
   9   6  -2   23.60   33.93   0
   9   7  -2  278.03   43.50   0
   5  -1  -1 2063.73   45.75   0
   9   5  -2  253.99   37.06   0
   4   1  -3 2343.82   50.64   0
   7   0  -1  877.46   35.67   0
   8   1  -1  741.17   35.61   0
  -1   0   2 2844.38   90.80   0
   5   1  -3  434.68   26.73   0
   7  -2   5  951.72   46.30   0
   7   1  -2 1013.83   37.59   0
   8   0   0  639.06   34.93   0
   8   6  -3  175.66   41.05   0
   9   0   2   19.40   25.18   0
   2  -1  -1 1163.07   42.26   0
   3  -3   5  156.54   36.77   0
   3  -2   0 4334.90   68.82   0
   4  -3   4  898.34   42.67   0
   4  -2   0   15.20   16.69   0
   6   0  -2  560.54   29.11   0
   7  -2   4   62.87   29.01   0
   7  -2   6   38.41   36.76   0
   8  -1   2  106.60   28.63   0
   8   2  -2  572.90   31.19   0
   8   5  -3  170.76   37.07   0
   8   7  -3  431.37   50.69   0
   9   2  -1  372.87   28.58   0
   9   4  -2  550.64   38.30   0
   2   0  -2 1290.47   46.28   0
   3   1  -3  406.70   28.39   0
   5   5  -4   33.48   31.68   0
   6  -2   1  936.26   36.36   0
   6  -1  -1   96.08   21.90   0
   7  -2   3  453.62   36.23   0
   7  -2   7  482.49   46.43   0
   8   4  -3  879.01   44.58   0
  -1   3   0 2648.76   72.77   0
   3  -3   6  849.91   55.14   0
   4  -3   3  156.66   27.54   0
   4  -3   6   66.62   36.66   0
   5  -2   0 1681.83   42.33   0
   5   4  -4 1156.72   44.72   0
   6   1  -3  989.41   35.80   0
   4   4  -4   99.58   29.44   0
   4   5  -4 1346.38   56.99   0
   5  -3   4  373.34   35.69   0
   5  -3   5  419.64   42.65   0
   5   3  -4  941.96   39.83   0
   5   6  -4  360.12   44.02   0
   6   4  -4  415.27   35.78   0
   6   5  -4  921.51   49.28   0
   9   0   1  516.79   33.63   0
  -1   1   1 3160.49   87.23   0
   5  -3   3 1407.66   47.18   0
   6   6  -4  335.86   44.04   0
   8   0  -1   43.07   28.05   0
   8   3  -3  407.73   35.61   0
   4  -3   7 1175.74   63.17   0
   4   3  -4  353.01   30.16   0
   5  -1  -2  129.70   21.64   0
   6  -2   0   45.38   24.53   0
   6   3  -4  295.34   31.44   0
   7   0  -2  582.38   32.37   0
   8   1  -2   38.80   24.94   0
   9   1  -1   16.23   24.87   0
   0   6  -1  478.81   45.64   0
   4   0  -3  588.90   29.01   0
   5   0  -3  490.73   27.15   0
   7  -2   1   48.80   23.89   0
   7  -1  -1  814.57   35.49   0
   7   5  -4   -1.50   37.15   0
   8  -2   5   14.15   33.26   0
   9   2  -2   59.72   29.16   0
   9   5  -3  317.14   39.49   0
   9   6  -3  184.68   40.29   0
   1   1  -2  189.46   31.91   0
   2  -3   4 1253.37   57.02   0
   3  -1  -2   33.21   17.17   0
   4  -2  -1 3314.62   57.10   0
   4   6  -4  448.09   50.14   0
   6  -3   4  699.81   40.38   0
   6  -3   5  631.23   45.77   0
   7   1  -3  207.41   25.40   0
   7   4  -4  645.22   39.57   0
   7   6  -4  319.42   47.50   0
   8  -2   6  329.93   41.19   0
   8  -1   0  299.31   29.53   0
   9   0   0   58.49   28.45   0
   5  -3   7   12.98   40.77   0
   5  -2  -1  151.90   21.67   0
   6  -3   3  179.25   32.30   0
   6  -1  -2 2024.08   44.91   0
   6   0  -3 1058.81   36.31   0
   8  -2   3  270.83   34.08   0
   9   4  -3   28.61   32.92   0
   1   6  -2   15.36   44.71   0
   2  -3   3  185.39   29.82   0
   3  -2  -1  157.49   20.12   0
   6  -3   6   44.10   41.95   0
   7   3  -4  560.17   36.49   0
   3   0  -3  609.29   29.84   0
   6  -2  -1 1897.99   46.07   0
   7  -2   0  711.22   33.42   0
   8   0  -2  407.19   30.75   0
   9  -1   1   99.37   26.65   0
   9   3  -3  161.80   34.88   0
   2  -3   6  421.32   57.93   0
   3   4  -4 1666.46   62.40   0
   8   4  -4   59.40   34.53   0
   8   5  -4  377.19   41.96   0
   8   6  -4  229.20   47.53   0
   9   0  -1  218.07   30.90   0
  -1   0   3 2845.90   86.29   0
   2   1  -3 4934.47   90.42   0
   3   3  -4  645.71   39.57   0
   7  -3   4  337.28   38.77   0
   7  -1  -2  -15.44   25.69   0
   7   0  -3  198.26   27.56   0
   8  -2   1  468.47   33.76   0
   8   1  -3  502.70   30.94   0
   4  -3   0  752.45   31.13   0
   7  -3   3  622.18   40.70   0
   7  -3   5  145.68   38.76   0
   8   3  -4  100.69   32.42   0
   9  -1   0  131.59   30.22   0
   5  -3   0  556.64   29.21   0
   5  -1  -3 1438.79   39.63   0
   7  -3   2   -8.50   30.19   0
   7  -3   6  368.99   46.36   0
   7  -2  -1    4.75   25.08   0
   3   5  -4  198.30   42.28   0
   4  -2  -2  593.00   27.97   0
   4  -1  -3   92.40   19.76   0
   6  -1  -3   93.69   23.75   0
   8  -2   0   -4.74   23.83   0
   6  -3   0 1253.40   40.16   0
   6  -2  -2  336.72   28.06   0
   8  -1  -2  574.35   36.20   0
   8   2  -4  364.65   33.29   0
   9   0  -2  294.50   31.20   0
   9   5  -4    1.59   40.50   0
  -1   2   1  331.79   29.70   0
   2  -1  -2 5540.58   85.48   0
   3  -3   0  295.23   22.53   0
   5   0  -4 1979.54   45.50   0
   6   0  -4  113.89   24.30   0
   8   0  -3  775.95   35.38   0
   9  -1  -1  375.74   32.16   0
   9   4  -4  213.98   37.43   0
   6   4  -5  379.36   40.47   0
   7  -1  -3  955.78   37.65   0
   8  -3   3   25.39   34.08   0
   8  -3   4  361.19   38.51   0
   9   3  -4  322.79   38.71   0
   2  -2  -1 3741.49   69.32   0
   3  -2  -2 3283.20   58.82   0
   4  -3  -1  759.30   30.59   0
   4   0  -4  173.82   20.56   0
   6   3  -5  839.79   41.07   0
   6   5  -5   55.61   39.96   0
   7  -3   0   59.50   25.34   0
   7   4  -5  339.49   41.32   0
   8  -3   5  159.35   37.71   0
   8  -2  -1  496.96   32.66   0
   2  -3   1  116.22   22.90   0
   5  -4   3   79.72   33.24   0
   5  -4   4  963.50   52.04   0
   5   4  -5  444.26   40.18   0
   6  -3  -1  589.85   32.79   0
   6   2  -5   78.37   27.40   0
   7   0  -4  788.90   34.52   0
   7   3  -5   86.38   29.94   0
   7   5  -5  542.09   49.33   0
   8  -3   2  338.67   36.54   0
  -1   0   5  167.25   30.81   0
  -1   1   2   30.93   17.34   0
   4  -4   3 1437.46   50.60   0
   5   2  -5 1665.49   48.51   0
   9   2  -4   10.99   31.56   0
   4  -4   2  147.91   26.83   0
   5  -2  -3  681.98   30.83   0
   5   5  -5 1037.34   52.46   0
   6  -4   3  828.74   43.88   0
   6  -4   4    7.26   39.67   0
   6  -2  -3  239.06   26.12   0
   8  -1  -3   29.25   26.13   0
   9  -1  -2    2.61   28.73   0
   9   0  -3   45.57   26.96   0
   2   0  -3 3788.32   73.66   0
   4  -4   5  976.53   53.45   0
   5  -1  -4   96.18   21.58   0
   6  -4   2  515.99   38.05   0
   6  -1  -4  895.49   35.99   0
   7  -3  -1  309.24   28.39   0
   8  -2  -2  263.21   29.98   0
   8   3  -5  571.62   41.10   0
   8   4  -5  233.10   36.25   0
   8   5  -5   17.46   41.70   0
   3  -3  -1  586.48   28.32   0
   4  -2  -3 1397.15   38.69   0
   5  -3  -2 1737.37   42.55   0
   6  -4   1  441.48   36.70   0
   6  -4   5  612.16   52.37   0
   8   0  -4    1.98   22.99   0
   9  -2  -1   43.73   28.75   0
   4   3  -5 1683.99   54.26   0
   6  -3  -2  361.82   28.97   0
   7  -4   3  126.96   35.55   0
   7  -2  -3  625.70   34.74   0
   7  -1  -4  219.00   28.12   0
   8   2  -5  125.78   33.97   0
   3  -4   4 1426.42   59.84   0
   3   0  -4 2215.66   51.44   0
   4  -3  -2  174.52   20.88   0
   4  -1  -4 1569.66   41.37   0
   4   2  -5  123.61   25.60   0
   4   4  -5 1146.13   53.43   0
   7  -4   2  391.42   39.04   0
   7  -4   4  649.97   45.47   0
   0  -1   7    9.95   42.55   0
   2  -3   0 5722.37   86.75   0
   3  -4   2 1851.83   52.76   0
   4  -4   6  293.89   47.79   0
   7  -4   1  522.43   37.66   0
   7  -4   5   11.43   42.83   0
   9  -1  -3  249.52   31.37   0
   9   4  -5  125.26   38.95   0
   3   6  -4  595.44   77.54   0
   8  -2  -3  329.85   31.53   0
   8  -1  -4  482.22   31.12   0
   8   1  -5   93.37   29.31   0
   9   0  -4  333.82   33.43   0
   9   3  -5   -3.05   32.01   0
   3  -4   5  422.41   46.87   0
   6  -2  -4  442.58   30.35   0
   9   2  -5  184.79   34.09   0
   3  -2  -3 1572.78   41.95   0
   5  -4  -1 1815.04   43.89   0
   5  -3  -3  188.45   22.73   0
   5  -2  -4  538.37   28.94   0
   6  -4  -1  120.86   25.61   0
   6  -3  -3  866.45   36.03   0
   8  -4   2  149.05   34.89   0
   8  -4   3  281.77   37.86   0
   8  -4   4    9.12   41.02   0
  -1   1   3 3796.89   87.11   0
  -1   2   2 4117.88   85.09   0
   2  -2  -2  409.21   26.55   0
   7  -2  -4  203.29   28.57   0
   8  -4   1  123.94   33.95   0
   8  -3  -2   70.88   25.97   0
   3  -3  -2 1466.41   39.99   0
   4  -4  -1    3.11   17.10   0
   4   5  -5   33.66   37.74   0
   6  -1  -5  625.51   31.77   0
   7  -4  -1  650.24   35.50   0
   7  -3  -3   10.02   25.98   0
   7   3  -6  543.63   43.01   0
   9   1  -5  186.21   33.07   0
   2  -1  -3  463.15   28.14   0
   3  -1  -4   38.44   16.90   0
   4  -3  -3 2221.02   46.43   0
   5  -1  -5 1067.09   35.63   0
   6   2  -6  578.03   37.38   0
   6   3  -6    8.12   34.71   0
   7  -1  -5  863.27   34.59   0
   7   2  -6  437.20   37.69   0
   7   4  -6   96.07   43.19   0
   8  -4   0  458.40   34.96   0
   5  -4  -2  -13.22   19.95   0
   6  -4  -2  729.34   33.64   0
   8  -2  -4  452.39   32.53   0
   8   3  -6   31.79   31.96   0
   2   2  -4 4149.51   92.19   0
   6   1  -6  483.34   33.27   0
   7   1  -6   25.07   26.64   0
   8  -1  -5  213.08   26.60   0
   8   2  -6  266.64   36.12   0
   8   4  -6  289.20   45.41   0
  -1   1   4  145.70   25.27   0
   2  -3  -1 1944.85   50.43   0
   5  -5   2  550.15   40.55   0
   5  -5   3  335.56   44.45   0
   5   2  -6  335.72   33.71   0
   6  -5   2   75.83   34.32   0
   6  -5   3  363.65   47.42   0
   6  -3  -4   40.94   24.82   0
   7  -4  -2   15.93   23.33   0
   2   3  -4 1653.30   71.47   0
   4  -1  -5  318.22   23.47   0
   5  -5   1   17.50   29.30   0
   5  -3  -4 1295.14   38.53   0
   5   1  -6  307.38   30.30   0
   6  -5   1  798.11   42.77   0
   6  -2  -5  197.61   27.47   0
   7  -3  -4  926.33   39.29   0
   8   1  -6  444.87   36.53   0
   3  -4  -1 1999.97   45.67   0
   3   2  -5 1076.22   44.88   0
   5  -2  -5 1644.97   42.10   0
   6  -5   0   85.26   31.58   0
   6  -5   4  214.58   47.68   0
   7  -5   2  358.16   38.65   0
   7  -2  -5  596.30   33.25   0
   0  -1   6 1152.15   73.26   0
   3   3  -5  222.65   33.61   0
   4  -5   2  382.74   35.75   0
   5  -5   0 1766.56   48.90   0
   5  -4  -3  865.32   32.61   0
   5   4  -6  382.36   40.98   0
   6  -4  -3  262.68   27.84   0
   7  -5   1    2.32   32.19   0
   7  -5   3   90.69   40.41   0
   8  -4  -2  537.83   32.14   0
   8   0  -6   65.20   29.41   0
   3  -3  -3  155.04   19.61   0
   4  -5   1 1494.34   47.58   0
   7  -5   0  528.51   38.56   0
   7  -5   4  221.75   48.92   0
   7  -4  -3  652.24   34.22   0
   8  -3  -4    9.73   28.64   0
   8  -2  -5   15.06   24.52   0
   3  -2  -4  682.60   29.28   0
   4  -3  -4    5.35   17.37   0
   2  -4   4   41.34   39.90   0
   8  -5   1  305.71   38.53   0
   8  -5   2   21.69   35.75   0
   8  -4  -3  135.39   28.17   0
   0   5   0   36.74   24.84   0
   2  -2  -3 4642.94   73.22   0
   2   0  -4  961.09   40.31   0
   4  -4  -3   -0.73   18.06   0
   4  -2  -5  187.86   21.91   0
   5  -1  -6  715.83   31.23   0
   6  -3  -5  874.53   37.67   0
   7  -3  -5   37.64   26.81   0
   8  -5   0    7.52   30.47   0
   1  -2  -1  349.38   29.67   0
   1  -1  -2   23.04   17.52   0
   2  -3  -2 2472.65   54.60   0
   3  -4  -2  109.60   19.01   0
   4   1  -6 2208.39   54.52   0
   4   2  -6 1343.37   47.52   0
   5  -5  -2  438.46   29.26   0
   6  -5  -2  384.01   28.64   0
   6  -4  -4  596.21   33.00   0
   7  -4  -4  511.49   32.77   0
   5  -4  -4  275.64   26.71   0
   6  -2  -6 1260.05   39.84   0
   7  -2  -6   -8.16   22.81   0
   7   1  -7  678.22   39.97   0
   7   2  -7   93.79   36.96   0
   8  -5  -1  262.61   33.60   0
   8  -3  -5  461.77   33.04   0
   8   2  -7  501.86   40.96   0
   2  -4   0 2968.31   65.18   0
   3  -1  -5 2145.33   48.24   0
   3   4  -5  626.17   49.08   0
   4  -5   5  161.14   48.15   0
   4   3  -6    6.73   30.41   0
   7   3  -7  155.54   44.58   0
   8  -4  -4  280.37   30.51   0
   8   1  -7   16.17   30.26   0
   8   3  -7  303.35   46.71   0
   3  -5   1  204.27   29.58   0
   5  -2  -6  117.92   22.70   0
   6  -5  -3  173.96   25.82   0
   6   1  -7   16.57   27.54   0
   7   0  -7  199.97   32.30   0
   8  -2  -6  382.90   28.95   0
   2   4  -4   70.10   50.49   0
   3  -5   3  596.84   46.48   0
   4  -5  -2  938.85   33.02   0
   6   0  -7  424.99   34.15   0
   7  -5  -3  355.16   29.40   0
   8   0  -7  290.06   33.29   0
   0  -1   5 1658.78   85.76   0
   2  -1  -4 4974.73   77.42   0
   3  -3  -4 1736.47   41.43   0
   4  -4  -4 2052.49   44.82   0
   4  -3  -5 1709.59   42.20   0
   6  -6   1  145.69   38.91   0
   6  -4  -5  468.64   34.08   0
   6  -6   0  221.90   35.79   0
   6  -6   2  569.70   49.34   0
   6  -3  -6  194.85   27.85   0
   7  -6   1  348.66   39.23   0
   7  -3  -6  381.31   29.48   0
   8  -5  -3   29.07   29.43   0
   8  -1  -7  414.04   34.29   0
   2  -4  -1   32.24   18.66   0
   5  -6   0  312.44   34.53   0
   5  -6   1  416.66   39.11   0
   5  -6   2   20.90   39.36   0
   5  -4  -5  761.26   33.52   0
   5   1  -7  827.79   40.51   0
   6  -6  -1  664.39   38.90   0
   6  -5  -4  700.21   33.78   0
   7  -6   2   25.78   42.41   0
   8  -4  -5  417.68   33.91   0
   8  -3  -6  171.12   29.36   0
   1   1  -3  222.32   33.86   0
   3  -5   4  521.37   48.29   0
   3  -2  -5 2164.31   47.17   0
   4  -5  -3  799.80   30.97   0
   4   4  -6  578.62   48.22   0
   5  -3  -6  766.56   34.10   0
   5   0  -7  367.32   33.03   0
   5   2  -7  662.80   42.35   0
   6  -6   3   10.03   44.11   0
   7  -6  -1  128.62   33.99   0
   7  -5  -4  120.82   26.48   0
   2  -3  -3 4122.69   67.45   0
   4  -2  -6 2320.59   47.98   0
   5  -6  -1  258.41   30.53   0
   5  -5  -4    3.08   23.12   0
   5   3  -7   89.85   36.54   0
   2  -2  -4  801.05   33.22   0
   4  -6   0  717.40   38.71   0
   4  -6   1  123.69   31.63   0
   6  -4  -6  209.41   28.19   0
   3  -5  -2 1208.37   37.36   0
   4  -4  -5 1949.82   43.73   0
   6  -6  -3  841.03   36.21   0
   6  -5  -5  -12.98   24.72   0
   7  -5  -5  551.60   33.67   0
   8   1  -8  284.49   37.36   0
   1   0  -3 2804.12   76.94   0
   1   6  -1  881.37   55.42   0
   2  -4  -2 3961.60   67.06   0
   3  -4  -4  947.40   32.68   0
   5  -2  -7 1172.40   37.83   0
   7  -3  -7  451.17   29.68   0
   7   0  -8  180.24   34.56   0
   7   1  -8   80.23   32.46   0
   7   2  -8  528.82   48.72   0
   8   0  -8  220.31   33.14   0
   8   2  -8   15.66   42.11   0
   1  -2  -2 4193.62   81.51   0
   3  -3  -5  451.89   25.91   0
   3   1  -6   21.40   22.33   0
   4  -3  -6  861.12   32.54   0
   5  -6  -3   76.09   22.66   0
   5  -5  -5 2237.03   47.73   0
   6  -3  -7  167.56   25.25   0
   4   0  -7 1158.52   42.35   0
   6   1  -8  721.39   44.54   0
   7  -6  -4  640.83   33.46   0
   7  -1  -8  463.25   35.67   0
   8  -1  -8   -0.01   27.15   0
   3  -5  -3 1179.47   36.59   0
   3  -5   5 1132.66   72.46   0
   3   2  -6  391.33   35.55   0
   4   1  -7   14.33   24.82   0
   5   4  -7  581.30   50.48   0
   6  -6  -4   77.97   23.69   0
   6  -1  -8   10.02   28.32   0
   0   3   0 3672.39  102.71   0
   6   2  -8   54.58   38.48   0
   7  -5  -6  141.13   30.44   0
   7  -4  -7    3.19   24.36   0
   4   2  -7 1235.31   50.62   0
   5  -6  -4  403.02   27.05   0
   6  -7  -1   15.74   34.58   0
   6  -7   0  533.58   41.71   0
   6  -5  -6  921.75   39.57   0
   7  -7  -1  512.88   41.52   0
   7  -7   0   38.77   35.48   0
   1  -1  -3 3828.70   80.05   0
   2  -3  -4  263.21   22.68   0
   3  -2  -6  397.50   25.03   0
   3   5  -5 1178.88   93.28   0
   4  -5  -5    8.66   18.77   0
   4  -4  -6    9.73   19.18   0
   4  -2  -7   37.59   18.71   0
   6  -7   1   93.24   42.24   0
   7  -7   1  324.47   45.97   0
   7  -6  -5  143.17   27.60   0
   0   0   6   31.24   31.38   0
   2  -5   2  240.16   37.54   0
   2  -1  -5 1528.66   43.88   0
   3  -6   0  906.42   41.49   0
   3  -6   1 1660.39   56.33   0
   3  -4  -5  663.30   28.88   0
   5  -7   0   31.46   34.15   0
   5  -5  -6  110.61   26.59   0
   5   0  -8  232.97   30.43   0
   6  -7  -2  469.02   35.73   0
   6  -6  -5  484.11   30.48   0
   7  -7  -2   40.06   32.59   0
   1  -1   8   57.95   49.70   0
   3  -5  -4 1305.76   37.84   0
   5  -7  -1  532.19   37.59   0
   5  -4  -7   25.27   23.69   0
   5  -1  -8  873.95   39.18   0
   5   1  -8  128.00   33.08   0
   6  -7   2  246.66   49.36   0
   7  -7  -3  223.72   33.38   0
   4  -6  -4   99.44   22.66   0
   5  -7  -2  191.52   29.58   0
   5  -6  -5  360.75   28.86   0
   2  -2  -5  762.78   32.28   0
   2   2  -5   35.12   26.28   0
   3  -3  -6 2019.40   45.08   0
   3   3  -6 1358.80   59.12   0
   4  -3  -7  884.59   32.50   0
   5  -7   2  418.89   51.49   0
   6  -5  -7  358.07   31.18   0
   7  -6  -6  106.89   28.10   0
   8   1  -9   65.45   40.25   0
   0   4   1  208.76   27.88   0
   2  -5   3  555.93   50.96   0
   5   2  -8  744.73   46.46   0
   6  -6  -6  423.90   32.02   0
   7  -4  -8  409.45   29.72   0
   7  -1  -9   20.53   29.57   0
   7   0  -9  342.25   35.74   0
   7   1  -9  312.65   43.93   0
   4  -5  -6 1838.24   43.20   0
   5  -3  -8  241.89   25.96   0
   6  -4  -8   65.25   23.60   0
   0   2   0 2285.52   98.62   0
   1  -3  -2 2767.06   63.24   0
   1  -2  -3  279.81   24.55   0
   3  -6  -3   50.90   21.70   0
   4  -7  -1   27.84   29.18   0
   4  -7   0  827.53   44.01   0
   5  -5  -7  607.47   32.24   0
   7  -2  -9  127.84   31.60   0
   2  -4  -4 1467.99   39.88   0
   3  -6   3 1017.45   56.44   0
   3  -5  -5 1028.69   34.56   0
   4  -7  -2 1244.61   42.72   0
   4  -7   1  136.30   40.81   0
   4  -6  -5 1082.02   36.43   0
   4  -4  -7 1535.98   40.93   0
   5  -7  -4  652.84   32.20   0
   5  -6  -6  334.55   28.46   0
   6  -7  -5  694.75   31.96   0
   6  -1  -9  719.79   41.38   0
   6   0  -9  179.34   37.03   0
   7  -7  -5   46.97   29.65   0
   2  -3  -5 3540.65   60.04   0
   3  -4  -6 1406.84   38.40   0
   6  -2  -9  388.22   33.70   0
   6   1  -9  161.61   40.75   0
   7  -6  -7  373.36   33.36   0
   7  -5  -8  331.43   32.52   0
   2  -5  -3  807.30   33.52   0
   4  -1  -8    9.47   23.55   0
   4   0  -8  485.78   33.56   0
   5  -4  -8  503.94   29.61   0
   5   3  -8  293.59   45.93   0
   6  -6  -7   57.46   28.84   0
   0   0   5 6065.88  125.54   0
   3  -6  -4 2770.95   52.34   0
   3  -2  -7 2303.13   47.83   0
   5  -7  -5   66.32   22.42   0
   6  -8  -2  185.29   35.40   0
   6  -8  -1  197.64   36.77   0
   6  -5  -8  260.05   28.20   0
   6  -8  -3   15.10   32.13   0
   6  -8   0  181.95   44.71   0
   6  -7  -6   16.35   24.34   0
   4  -5  -7  229.36   25.85   0
   4  -3  -8 1206.88   37.62   0
   4   1  -8 1183.03   48.57   0
   5  -6  -7  871.13   38.08   0
   5  -1  -9   53.45   28.13   0
   2  -5   4  787.10   67.57   0
   3  -3  -7  650.25   28.62   0
   5  -8  -2  221.37   35.81   0
   5  -8  -1  407.53   40.15   0
   5  -5  -8  367.23   29.40   0
   5  -2  -9  447.31   32.34   0
   5   0  -9  931.44   45.95   0
   6  -8  -4  550.04   35.73   0
   0   3   1 2066.73   68.44   0
   1  -3  -3 2667.46   59.06   0
   2  -4  -5 1444.04   39.44   0
   3  -7  -1 1828.73   54.51   0
   3  -6   4  138.84   50.51   0
   3  -5  -6   -6.33   18.61   0
   5  -8  -3  806.88   39.67   0
   5  -8   0  531.50   46.19   0
   6  -6  -8  715.56   34.73   0
   7  -1 -10  219.75   34.59   0
   2  -5  -4 1615.60   41.53   0
   2  -2  -6 1441.73   40.85   0
   3  -7  -2   46.27   25.59   0
   3  -7   0    8.44   29.37   0
   3  -6  -5  348.60   25.35   0
   4  -4  -8   14.29   20.71   0
   7   0 -10   16.05   41.62   0
   1  -1  -4  147.57   22.08   0
   1   0  -4 2061.99   63.28   0
   1   5  -1   88.86   30.04   0
   2   3  -5 1410.34   74.74   0
   3  -4  -7   10.73   18.08   0
   5  -8   1   18.50   44.58   0
   5   1  -9  532.60   42.98   0
   6  -5  -9  636.12   31.02   0
   7  -3 -10   36.93   29.14   0
   1  -4   3   13.11   39.52   0
   4  -6  -7  231.13   27.51   0
   4   2  -8  204.42   34.26   0
   5  -4  -9   77.27   24.72   0
   2  -3  -6 1066.41   35.15   0
   5  -7  -7   33.53   25.35   0
   5  -6  -8   27.89   25.37   0
   6  -8  -6  324.67   31.00   0
   6  -1 -10  123.75   32.63   0
   1  -2  -4 2718.52   59.58   0
   1  -2   6  402.19   65.31   0
   2  -6  -3 5254.87   73.89   0
   3   2  -7  498.42   39.37   0
   4  -8  -3  117.49   30.66   0
   4  -7  -6   45.89   23.05   0
   4  -5  -8  471.27   29.64   0
   6  -3 -10  621.00   36.77   0
   2  -5  -5   82.67   18.52   0
   3  -6  -6  594.67   28.68   0
   3  -5  -7 1236.83   35.73   0
   3   4  -6  408.25   55.80   0
   4  -8   0  149.93   41.72   0
   5  -5  -9  150.16   24.74   0
   6  -7  -8  134.10   28.63   0
   6  -6  -9   21.53   26.07   0
   0   3   2  690.86   38.70   0
   4  -2  -9  961.99   39.03   0
   4  -1  -9  786.48   38.41   0
   5  -8  -6  136.37   23.94   0
   5   2  -9    0.32   38.34   0
   6  -9  -3  153.48   34.71   0
   6  -9  -2   -6.76   34.95   0
   2  -4  -6  215.57   20.97   0
   3  -7   2  621.19   48.13   0
   3  -3  -8  317.46   25.03   0
   3  -1  -8 1138.89   40.72   0
   6  -9  -4   90.64   31.63   0
   6  -9  -1  382.94   49.33   0
   6  -8  -7  318.95   28.99   0
   0   2   1 2951.29   91.73   0
   1  -3  -4 9938.03  105.80   0
   1  -1   7 1851.49   82.02   0
   2  -6  -4  462.83   27.04   0
   3  -7  -5   24.19   20.46   0
   4  -8  -5   15.44   22.76   0
   4  -7  -7  717.27   32.95   0
   4  -4  -9 1056.58   35.66   0
   4   0  -9   84.45   32.20   0
   5  -7  -8  518.15   33.53   0
   5  -3 -10    9.55   27.15   0
   5  -2 -10  794.87   39.81   0
   3  -4  -8 2061.66   44.27   0
   3   0  -8  965.73   41.34   0
   5  -9  -3   23.79   32.95   0
   5  -9  -2  420.04   38.86   0
   5  -6  -9  763.19   33.18   0
   6  -9  -5  149.96   30.48   0
   0   1   4 2071.78   68.09   0
   3  -6  -7 1040.26   34.45   0
   5  -9  -4  353.15   35.13   0
   5  -9  -1   19.16   41.54   0
   5  -8  -7  332.03   27.25   0
   6  -7  -9  309.21   32.35   0
   7  -1 -11  185.72   38.37   0
   2  -5  -6 1624.97   39.97   0
   4  -8  -6  605.00   31.11   0
   4  -5  -9  594.83   30.33   0
   5   0 -10   33.39   35.51   0
   0   0   3  910.54   60.40   0
   2  -6  -5 1540.91   40.62   0
   3  -8  -3  461.96   35.43   0
   3  -8  -2  239.22   34.11   0
   3  -7  -6 1586.31   42.02   0
   3  -5  -8  667.19   30.37   0
   4   3  -8  282.51   46.95   0
   5  -9  -5  287.68   30.53   0
   5  -5 -10  746.19   34.92   0
   6  -6 -10  470.14   29.81   0
   1  -4  -4  448.81   26.73   0
   2  -3  -7  665.81   28.64   0
   4  -7  -8  217.57   29.01   0
   4   1  -9  338.20   38.54   0
   5  -9   0  613.03   52.66   0
   5  -7  -9  473.38   31.26   0
   6  -3 -11  142.71   32.52   0
   6  -2 -11  506.63   36.44   0
   0   2   2 1603.57   59.89   0
   0   2   3 2288.06   65.36   0
   1  -5   1  762.17   46.14   0
   2  -7  -1   12.42   25.88   0
   4  -6  -9   95.44   23.91   0
   6  -4 -11   68.58   29.16   0
   6  -1 -11  303.07   43.02   0
   1  -2  -5 2458.65   54.59   0
   2  -6   3   10.54   40.22   0
   2  -4  -7 1784.68   42.10   0
   3   1  -8    8.55   28.93   0
   4  -9  -4  256.27   32.23   0
   4  -9  -2   29.41   34.12   0
   4  -8  -7  245.82   26.86   0
   5  -6 -10  132.10   23.80   0
   0   1   3   84.59   24.14   0
   1  -1  -5 1989.99   54.25   0
   2  -7  -4  940.75   35.71   0
   3  -8  -5  960.10   36.44   0
   3  -7  -7   -5.20   23.00   0
   3  -6  -8  130.95   23.64   0
   4  -3 -10  756.88   37.40   0
   5   1 -10  346.21   42.55   0
   6  -5 -11  478.85   32.61   0
   1  -3  -5   -1.04   15.93   0
   2  -6  -6  540.38   27.85   0
   3   3  -7   83.90   38.48   0
   4  -2 -10  164.96   28.44   0
   5  -9  -7  262.81   26.06   0
   2  -5  -7  448.23   25.70   0
   3  -4  -9  374.58   26.30   0
   3  -2  -9  578.04   31.99   0
   4  -5 -10   71.56   25.16   0
   5  -8  -9    1.17   25.70   0
   5  -4 -11  369.24   33.64   0
   5  -3 -11  402.05   35.74   0
   0   1   2 3245.41   99.53   0
   1  -5  -4  570.59   28.66   0
   1   5   0 3934.65   87.97   0
   2  -7  -5 1444.28   39.82   0
   4  -9   0  166.12   48.81   0
   4  -8  -8  135.22   26.18   0
   4  -7  -9  276.20   27.82   0
   4  -1 -10   97.56   30.25   0
   5  -7 -10  112.99   25.14   0
   5  -2 -11   15.52   30.53   0
   1  -4  -5 2872.92   54.67   0
   2  -7   1  586.14   47.14   0
   3  -5  -9  381.06   26.93   0
   3  -1  -9    7.58   24.58   0
   5 -10  -3  156.13   33.89   0
   5  -9  -8   12.78   23.67   0
   1  -5   2 1247.39   64.76   0
   4  -6 -10  564.17   29.32   0
   5 -10  -5    1.75   28.65   0
   5 -10  -2  172.79   46.23   0
   5  -1 -11  248.73   38.32   0
   2  -6  -7  540.39   27.38   0
   2  -3  -8  777.11   31.32   0
   3  -8  -7  403.50   29.51   0
   4  -9  -7   28.56   21.53   0
   4   2  -9  668.54   48.47   0
   6  -3 -12  124.44   32.38   0
   2  -7  -6   32.32   19.27   0
   2  -4  -8   -3.85   16.80   0
   3  -9  -4  786.57   40.50   0
   3  -9  -3  142.95   31.68   0
   3  -6  -9 1262.64   38.34   0
   4  -8  -9  599.75   33.09   0
   4   0 -10  907.09   46.05   0
   5  -8 -10  679.42   34.37   0
   1  -6  -3   34.19   17.17   0
   1  -5  -5 3057.41   55.09   0
   4  -7 -10  636.12   31.30   0
   5  -9  -9  424.35   29.88   0
   6  -2 -12   26.53   36.35   0
   1  -3  -6 1513.19   41.53   0
   2  -8  -3  615.45   33.34   0
   2  -8  -2  590.37   37.60   0
   2  -5  -8  731.38   29.65   0
   4 -10  -4   28.08   33.47   0
   5  -7 -11  464.18   29.48   0
   5   0 -11  504.21   46.57   0
   1  -2  -6   10.61   16.53   0
   2   1  -7  218.97   30.82   0
   3  -9  -1   69.44   40.73   0
   4 -10  -5  520.48   36.62   0
   4 -10  -3  413.15   39.52   0
   4  -4 -11  195.82   27.05   0
   4  -3 -11  108.31   28.81   0
   1  -4  -6 2966.34   53.84   0
   2  -8  -5  396.87   26.55   0
   2  -7  -7 1323.66   37.36   0
   2  -1  -8   94.87   23.48   0
   3  -3 -10  145.21   28.03   0
   4 -10  -6   42.24   27.27   0
   4 -10  -2  530.99   49.26   0
   5  -4 -12    9.33   29.46   0
   2  -7   2  755.73   54.37   0
   2  -6  -8 2713.02   49.06   0
   3  -5 -10  870.32   32.30   0
   4  -8 -10    8.82   23.37   0
   4  -6 -11  289.36   28.16   0
   4  -2 -11  625.38   39.16   0
   5  -5 -12  403.70   33.16   0
   5  -3 -12  184.92   31.60   0
   1  -6  -5  741.24   30.26   0
   1  -5  -6  926.20   31.71   0
   2  -8  -6  517.31   29.83   0
   3  -6 -10  402.39   27.77   0
   4  -9  -9   87.08   24.16   0
   1  -1   6  167.78   41.96   0
   1   4  -1  365.65   39.44   0
   4 -10  -1   61.75   46.11   0
   5  -2 -12  604.25   45.26   0
   3  -8  -9   47.61   25.48   0
   4 -10  -8  231.24   25.61   0
   4  -7 -11   12.38   20.94   0
   2  -8  -7  837.23   34.38   0
   2  -7  -8   96.87   22.47   0
   3  -9  -8   38.51   23.95   0
   3  -7 -10  113.41   24.20   0
   5 -11  -3  305.93   41.24   0
   1  -6  -6 1196.34   35.32   0
   3 -10  -5   14.18   30.08   0
   4  -9 -10  246.26   27.73   0
   0  -2  -2 1621.37   57.20   0
   1  -4  -7   43.92   16.31   0
   2  -9  -4  159.00   31.08   0
   2  -6  -9  -18.08   22.01   0
   3 -10  -3  189.26   36.71   0
   4 -10  -9  117.30   23.87   0
   4  -8 -11  427.77   28.67   0
   1  -7  -5  639.31   30.19   0
   1  -5  -7 2673.19   49.16   0
   2  -2  -9  177.29   24.04   0
   4 -11  -6   61.02   32.57   0
   4 -11  -5  137.21   32.46   0
   4  -5 -12    4.08   26.17   0
   4  -4 -12  379.92   33.40   0
   0  -3  -2  710.22   36.58   0
   2  -9  -6  670.70   32.36   0
   2  -8  -8  717.65   32.86   0
   3  -8 -10  683.18   31.59   0
   3  -6 -11  418.72   29.15   0
   3  -4 -11  929.35   36.87   0
   4 -11  -7  185.00   31.99   0
   4 -11  -4  260.69   36.52   0
   5  -5 -13  192.35   31.12   0
   2  -7  -9 1384.40   38.37   0
  -9  -5  -1   12.88   27.34   0
  -8  -4   0  152.85   29.40   0
  -7   2   2  628.79   44.05   0
  -6  -3   1   48.04   23.12   0
  -5  -3   1 3175.34   60.48   0
  -9  -8  -3  201.54   39.92   0
  -9  -3   0    9.64   31.86   0
  -7   1   2    0.51   31.00   0
  -7   3   2  634.66   45.94   0
  -4  -6  -1  680.91   33.28   0
  -3  -4   0  852.93   36.08   0
  -8  -6  -1  111.32   34.20   0
  -8  -2   1  444.13   38.07   0
  -6 -13  -8  119.08   45.08   0
  -6  -5   0   11.89   22.72   0
  -5  -5   0 1489.40   43.83   0
  -4 -11  -6  510.10   45.29   0
 -10   0   0  218.72   44.38   0
  -9  -7  -2   -3.74   35.38   0
  -7  -9  -3   -5.00   29.02   0
  -7  -5   0  884.61   41.68   0
  -7  -3   1  700.53   36.72   0
  -7   0   2  576.62   38.87   0
  -6  -9  -3  729.01   38.35   0
  -5  -1   2 1932.33   48.04   0
  -4  -3   1   69.58   20.28   0
  -1  -9  -6  471.21   50.46   0
  -1  -2   0 6016.86  116.44   0
 -10  -1   0    3.22   36.00   0
  -9   0   1  235.55   37.96   0
  -8 -10  -4  261.81   41.47   0
  -7 -11  -5  534.10   44.39   0
  -6  -8  -2  337.05   33.08   0
  -3   0   2 2599.94   61.80   0
 -10  -2   0  177.41   37.88   0
  -6 -11  -5    6.76   35.99   0
  -4  -1   2   86.81   19.18   0
  -3 -12  -8   16.37   43.40   0
  -3  -9  -4 1205.64   49.71   0
  -9  -6  -1  235.03   35.93   0
  -9  -1   1   -2.40   32.83   0
  -8  -8  -2   94.19   33.91   0
  -8  -5   0   89.48   30.70   0
  -7 -12  -6  100.18   41.71   0
  -7  -1   2 1059.27   44.79   0
  -6  -7  -1  101.44   30.41   0
  -5 -13  -8  263.17   48.43   0
  -5 -10  -4  525.48   42.27   0
  -5  -8  -2  807.09   38.13   0
  -2 -10  -6   17.06   37.50   0
  -6 -12  -6  503.61   46.57   0
  -4 -12  -7   17.16   43.57   0
  -3 -10  -5  121.90   35.79   0
  -2  -5  -1 1586.11   48.74   0
  -9  -2   1  377.04   41.37   0
  -7  -4   1  136.96   29.79   0
  -5 -11  -5  588.00   43.77   0
  -5  -4   1  353.91   28.32   0
  -9  -8  -2  351.03   40.55   0
  -8  -7  -1  118.12   35.64   0
  -8   0   2  436.48   38.07   0
  -5  -2   2  509.77   30.12   0
  -3  -6  -1  805.22   34.77   0
   0  -8  -6 2446.57  123.68   0
   1   1  -1 1258.61   57.29   0
   2  -3  -5 3512.75   92.11   0
  -9  -5   0  359.88   34.48   0
  -7  -6   0   93.69   33.43   0
  -5   2   3  666.88   37.01   0
  -5   3   3  163.85   29.42   0
  -3  -3   1 3656.49   66.68   0
  -9  -3   1  490.93   40.44   0
  -8  -4   1  556.60   35.14   0
  -8  -1   2   18.90   31.29   0
  -6 -13  -7  287.84   42.71   0
  -5 -12  -6  249.31   42.99   0
  -4  -9  -3 1565.26   48.42   0
  -9  -7  -1  315.35   37.71   0
  -8  -6   0  480.22   38.91   0
  -6   2   3  211.85   28.54   0
  -5  -6   0  202.95   25.50   0
  -5   1   3 1453.51   46.79   0
  -4 -10  -4  516.67   40.56   0
  -4  -4   1 1681.79   44.54   0
  -1   0   1 6876.86  143.12   0
  -1   5   1   26.04   27.94   0
 -10  -1   1  314.14   40.54   0
 -10   0   1  162.07   45.11   0
  -8 -10  -3   85.24   35.79   0
  -7 -11  -4    8.84   36.51   0
  -7  -9  -2  445.26   35.12   0
  -6   1   3   63.83   26.00   0
  -4  -7  -1   40.89   21.10   0
  -4   3   3 2300.90   64.75   0
  -3  -1   2 6846.45   92.50   0
   1   2  -1 4188.04   90.24   0
  -8  -9  -2   84.71   32.91   0
  -8  -2   2  616.85   39.02   0
  -6  -9  -2  192.54   30.25   0
  -6  -5   1  843.75   37.56   0
  -6  -3   2 1252.64   41.30   0
  -5   4   3  863.88   47.37   0
  -4 -11  -5   -4.14   35.78   0
  -2  -4   0 4993.69   81.74   0
  -1 -10  -7   11.82   43.95   0
 -10  -2   1   39.11   35.83   0
  -9  -6   0   18.77   30.65   0
  -9   0   2  300.42   38.72   0
  -9   1   2   -1.11   39.11   0
  -7 -12  -5  152.46   39.33   0
  -7  -8  -1  101.49   31.78   0
  -7  -5   1  136.54   30.33   0
  -7  -3   2  358.73   31.37   0
  -6 -11  -4  552.77   42.60   0
  -6   0   3 1086.16   40.49   0
  -8  -8  -1  434.60   37.20   0
  -7   1   3  987.64   43.08   0
  -7   2   3  621.77   42.42   0
  -6   4   3  255.01   36.92   0
  -5 -13  -7   79.28   44.24   0
  -5  -5   1  302.18   27.72   0
  -5  -3   2  338.32   27.22   0
  -4   4   3    6.93   29.96   0
  -7   0   3  185.15   30.80   0
  -6 -12  -5  322.92   43.02   0
  -4  -6   0 1012.08   37.55   0
  -8  -7   0  226.80   35.39   0
  -7   3   3   17.86   32.10   0
  -5 -10  -3  803.76   43.27   0
  -4 -12  -6  375.03   46.40   0
  -9  -2   2   52.43   33.88   0
  -5 -11  -4    8.24   34.60   0
  -5  -8  -1   33.00   25.97   0
  -2  -8  -3 1019.20   45.81   0
  -9  -5   1  191.23   35.61   0
  -7  -4   2  915.11   38.99   0
  -7  -1   3  248.07   32.24   0
  -6 -13  -6   -3.33   37.47   0
  -6  -4   2   58.49   26.19   0
  -5  -1   3  442.89   28.06   0
  -4   0   3  570.27   29.50   0
  -3  -9  -3   -2.42   28.65   0
  -2   0   2 1277.22   48.68   0
  -9  -7   0  105.07   34.80   0
  -8   1   3   28.29   36.53   0
  -5 -12  -5  220.85   41.96   0
  -3  -4   1  661.23   31.61   0
  -3  -2   2 2632.51   56.53   0
  -9  -3   2  158.13   36.33   0
  -8  -6   1   -6.21   29.72   0
  -8  -4   2    9.75   26.43   0
  -8   2   3  334.24   43.23   0
  -7 -11  -3  323.84   40.08   0
  -6  -6   1   35.16   27.79   0
  -5   5   3  818.88   57.71   0
  -4  -5   1 2147.35   49.34   0
   1  -1  -2    5.56   21.86   0
 -10  -1   2   42.37   37.10   0
  -8  -1   3  547.43   38.52   0
  -7  -9  -1  237.85   31.24   0
  -6  -2   3   39.33   21.01   0
  -5  -4   2  823.64   34.71   0
  -2  -6  -1 1391.58   46.65   0
  -1  -7  -3 3331.60   80.95   0
  -7 -12  -4  146.54   38.37   0
  -4 -10  -3  704.53   42.25   0
  -4  -9  -2   29.43   29.19   0
  -3   3   3  160.56   31.56   0
  -2 -10  -5 1197.16   56.34   0
  -1  -8  -4  168.45   35.35   0
  -1  -3   0   29.21   17.41   0
  -9  -6   1  317.34   35.99   0
  -8  -8   0   -2.79   31.74   0
  -6 -11  -3   70.76   34.72   0
  -6  -9  -1  384.00   32.79   0
  -5 -13  -6  419.01   49.82   0
  -5  -6   1 1062.09   37.81   0
  -5  -2   3 2837.75   55.08   0
  -4  -1   3 2377.80   51.77   0
  -3   1   3 2970.70   67.12   0
  -2  -3   1    9.75   14.88   0
  -8  -2   3    2.98   28.96   0
  -7  -5   2  264.79   32.69   0
  -6 -12  -4  128.88   39.70   0
  -4 -11  -4  605.41   45.24   0
  -9   0   3   37.93   35.56   0
  -8  -5   2  416.32   33.25   0
  -7  -3   3  397.31   31.65   0
  -6  -8   0    7.51   27.55   0
  -6  -5   2  508.67   34.22   0
  -4  -7   0 1137.31   39.02   0
  -4   5   3  906.98   70.21   0
  -9  -1   3  191.97   35.82   0
  -8  -7   1  215.80   34.23   0
  -7  -7   1  301.23   36.81   0
  -6  -3   3  614.98   32.82   0
  -4  -4   2   85.36   20.27   0
  -2  -5   0   -3.07   18.84   0
  -1  -9  -5 1067.18   60.21   0
  -1  -1   1 1366.57   56.42   0
   0   3   0 3784.37  100.99   0
  -9  -2   3  573.89   42.00   0
  -6 -13  -5  503.20   43.43   0
  -6   1   4  889.27   38.86   0
  -6   2   4  433.41   33.02   0
  -5 -10  -2   27.55   31.19   0
  -3   0   3  617.99   31.96   0
  -2  -1   2   83.65   18.48   0
  -9  -5   2  282.57   36.64   0
  -7   1   4  207.48   32.41   0
  -6  -7   1  622.45   36.34   0
  -5  -5   2  980.12   36.55   0
  -4 -12  -5  210.73   43.92   0
  -4  -2   3  371.44   25.88   0
  -3  -3   2 1020.07   35.68   0
  -2 -11  -6  792.81   54.82   0
  -1   4   1 2274.49  100.75   0
  -7   0   4  840.89   39.06   0
  -7   2   4  199.85   34.47   0
  -6   0   4  120.89   23.46   0
  -5  -8   0  650.25   35.12   0
  -5  -3   3  939.32   35.57   0
  -5   1   4   93.35   23.19   0
  -5   2   4  524.96   33.52   0
  -4  -6   1   75.26   21.88   0
  -3  -5   1  414.45   26.94   0
  -1  -5  -1  533.11   36.41   0
  -9  -3   3  159.81   34.95   0
  -7 -11  -2  157.74   35.61   0
  -7  -6   2  138.50   31.16   0
  -7  -4   3   43.06   25.76   0
  -6   3   4   16.44   27.21   0
  -5 -12  -4  348.94   41.48   0
  -8  -9   0  129.06   34.18   0
  -8  -6   2  495.31   36.36   0
  -8  -4   3  864.19   41.77   0
  -7 -12  -3   25.42   34.24   0
  -7  -9   0  140.50   28.86   0
  -6  -4   3  713.97   36.15   0
  -5   3   4 1263.92   48.26   0
  -8   0   4    3.15   30.09   0
  -8   1   4  520.05   41.71   0
  -7   3   4  905.63   45.55   0
  -5  -7   1  450.58   32.85   0
   1   1  -2  175.89   23.87   0
  -8  -1   4  403.95   37.06   0
  -8   2   4  502.36   45.38   0
  -6 -11  -2  415.28   39.09   0
  -5 -13  -5   11.09   43.01   0
  -3  -9  -2 1974.82   54.06   0
  -3  -1   3  399.93   26.28   0
  -7  -8   1   55.26   29.64   0
  -6 -12  -3  335.08   41.31   0
  -6  -9   0  543.16   34.37   0
  -5  -1   4  835.23   33.05   0
  -4  -5   2 1655.57   43.50   0
  -3 -10  -3  764.82   41.79   0
  -2  -8  -2  658.11   38.81   0
  -2  -4   1 3769.43   67.40   0
  -1 -10  -6 1288.75   71.32   0
   0   2   0 2270.91   94.96   0
   1  -7  -8 1493.08   80.88   0
  -8  -2   4  387.95   35.41   0
  -7  -5   3  611.63   35.74   0
  -6   4   4  582.70   42.90   0
  -5  -4   3   -3.65   21.25   0
  -4 -10  -2  925.49   42.73   0
  -4  -3   3  702.93   29.95   0
  -4   2   4 2707.61   62.15   0
  -9   0   4  393.67   41.71   0
  -8  -7   2   43.52   30.74   0
  -8  -5   3  184.31   28.43   0
  -6 -13  -4   41.83   37.34   0
  -6  -8   1  648.30   37.40   0
  -5  -6   2   22.95   24.76   0
  -4 -11  -3   37.74   33.78   0
  -3  -7   0  299.90   26.11   0
  -3  -4   2 4469.15   67.23   0
  -9  -1   4  155.48   33.32   0
  -9   1   4   57.97   40.75   0
  -7  -3   4  586.20   34.21   0
  -6  -5   3   47.35   26.68   0
  -5   4   4  303.30   37.16   0
  -4   0   4  176.39   20.58   0
  -4   3   4    3.60   25.65   0
  -9  -2   4   25.04   30.96   0
  -5 -11  -2  173.71   36.11   0
  -5 -10  -1  971.54   44.50   0
  -5  -2   4   43.28   20.02   0
  -1  -4   0 3624.26   75.78   0
  -7 -11  -1  182.90   35.63   0
  -6  -7   2  199.20   30.62   0
  -6  -3   4  343.76   28.17   0
  -4 -12  -4   91.90   40.86   0
  -4  -7   1  637.30   31.80   0
  -3  -6   1 3516.49   61.16   0
  -3  -2   3 1103.62   36.41   0
  -2  -6   0 1239.40   41.29   0
  -1  -2   1 4186.08   84.69   0
  -9  -3   4  359.80   36.99   0
  -7 -10   0   62.84   33.20   0
  -6 -14  -5   37.43   43.74   0
  -5 -12  -3   81.57   36.90   0
  -4  -1   4  684.88   30.40   0
   1  -2  -3  257.85   37.56   0
  -8  -6   3  193.47   30.45   0
  -7  -9   1  457.82   32.47   0
  -7  -6   3  405.95   34.82   0
  -5  -8   1   13.17   24.21   0
  -4  -4   3 1889.40   44.11   0
  -7  -4   4  614.79   33.21   0
  -7   0   5   -0.02   26.58   0
  -6   1   5  640.35   35.09   0
  -6 -12  -2    8.54   35.89   0
  -6 -11  -1  325.88   37.64   0
  -6  -6   3  253.44   32.15   0
  -6  -4   4  431.56   31.20   0
  -6   0   5 1358.89   44.15   0
  -5 -13  -4  344.16   45.98   0
  -4 -13  -5  333.83   47.20   0
  -4  -6   2 2596.58   51.92   0
  -2 -11  -5  293.30   43.15   0
  -1  -8  -3 1291.19   55.24   0
  -8   0   5  430.31   36.20   0
  -8   1   5  219.18   35.16   0
  -7  -8   2  374.32   32.88   0
  -7  -1   5  508.57   33.67   0
  -7   2   5  577.54   39.80   0
  -6  -9   1  118.89   26.99   0
  -6   2   5  185.92   29.22   0
  -5  -7   2  722.50   35.71   0
  -4  -2   4  744.48   31.47   0
  -2  -3   2 2045.57   49.16   0
  -8  -1   5   99.01   29.47   0
  -6 -13  -3  150.76   37.72   0
  -4   4   4 2163.34   71.95   0
  -3  -3   3 1127.52   36.01   0
  -2  -5   1 2108.78   49.75   0
  -2   1   3  469.36   32.14   0
  -8  -7   3  368.44   35.88   0
  -8  -5   4  386.41   30.64   0
  -8  -2   5   98.60   31.19   0
  -8   2   5   17.79   36.57   0
  -7  -5   4   -2.43   25.27   0
  -5   1   5 1063.76   38.44   0
  -4 -10  -1   35.93   31.08   0
  -3  -9  -1  121.91   28.94   0
  -1  -9  -4  887.70   53.11   0
  -9  -1   5  196.81   33.08   0
  -9   0   5   53.90   37.55   0
  -7  -7   3   18.35   29.70   0
  -7   3   5   45.36   33.37   0
  -6  -8   2   75.52   27.16   0
  -6  -2   5   74.18   23.94   0
  -5  -4   4 1192.17   38.68   0
  -4 -11  -2  396.22   38.10   0
  -3 -10  -2  202.30   33.89   0
  -3   1   4   33.14   19.55   0
  -2   0   3 3838.07   72.44   0
   0   3  -1  199.58   27.56   0
   1   0  -3 2708.96   71.32   0
  -5 -10   0   41.59   30.94   0
  -5  -6   3  964.63   37.76   0
  -5  -1   5 1332.95   40.08   0
  -4  -8   1 1355.26   41.47   0
  -4  -5   3  770.31   32.60   0
  -3   0   4 2170.54   50.61   0
  -9  -2   5  223.94   32.64   0
  -7 -10   1  193.22   34.07   0
  -6  -5   4  887.54   36.44   0
  -4 -12  -3  564.93   47.65   0
  -4  -3   4  381.12   25.70   0
  -3 -11  -3  746.38   47.34   0
  -3  -7   1 1040.77   37.69   0
  -1  -3   1 4143.06   77.72   0
  -6  -7   3  785.31   38.64   0
  -5 -12  -2  492.01   41.63   0
  -5   3   5  358.76   35.34   0
  -5   5   4    5.54   41.16   0
  -2  -9  -2  123.17   29.12   0
  -2  -8  -1 1860.68   51.53   0
  -2  -1   3 4777.70   75.53   0
  -8  -6   4  189.26   31.56   0
  -7  -9   2   -4.20   27.64   0
  -7  -6   4  313.14   32.25   0
  -6  -3   5  853.12   35.20   0
  -5  -2   5 1767.70   42.74   0
  -4  -7   2  141.22   25.00   0
  -3  -4   3   83.08   19.76   0
  -3  -1   4 1842.27   44.93   0
  -3   6   1  255.08   48.60   0
  -1  -5   0 3861.21   74.26   0
  -6 -11   0   90.12   34.48   0
  -5 -13  -3  119.88   43.11   0
  -5  -8   2  542.89   32.16   0
  -2  -4   2   15.47   17.14   0
  -7  -4   5  289.33   27.68   0
  -6 -12  -1  238.02   35.95   0
  -5  -5   4   21.59   25.34   0
  -4 -13  -4   66.84   44.10   0
  -4   0   5 2347.65   49.77   0
  -3  -6   2   63.50   20.43   0
  -2   5   1 2368.21   91.48   0
  -1 -10  -5    9.94   40.68   0
   0  -8  -5   26.40   63.30   0
   1  -5  -6  959.34   61.97   0
  -7  -8   3  183.66   30.44   0
  -6 -13  -2  174.89   38.06   0
  -6  -9   2  709.71   34.87   0
  -6  -6   4  341.78   33.16   0
  -6   4   5  464.70   43.22   0
  -4  -4   4   98.91   21.15   0
  -4   2   5  166.84   25.40   0
  -3   3   4 1806.75   60.54   0
  -7   0   6  994.49   38.90   0
  -7   1   6  709.13   38.10   0
  -6  -4   5  389.18   31.00   0
  -5  -7   3   21.10   25.44   0
  -5  -3   5  112.59   25.15   0
  -4  -6   3  373.45   28.42   0
  -4  -1   5  522.74   27.06   0
  -2  -6   1  155.06   21.52   0
  -1   0   2 2956.12   77.59   0
  -8  -5   5   15.24   26.89   0
  -8  -1   6  513.88   35.84   0
  -8   0   6   64.81   28.06   0
  -8   1   6   54.95   35.29   0
  -7  -1   6   40.26   25.22   0
  -6   0   6  185.94   28.41   0
  -6   1   6  455.47   33.61   0
  -2 -11  -4 1085.34   54.66   0
  -1   1   2    7.42   19.73   0
  -8  -2   6  313.48   33.08   0
  -7  -7   4  411.96   34.88   0
  -7  -5   5  515.79   33.25   0
  -7   2   6   12.54   30.78   0
  -6  -8   3  422.31   31.44   0
  -4 -10   0  651.93   39.47   0
  -1   4   0  949.27   52.12   0
  -9  -1   6   21.94   30.12   0
  -9   0   6  156.37   39.54   0
  -6   2   6 1242.60   45.51   0
  -5   4   5  815.40   47.25   0
  -4 -11  -1  320.21   37.56   0
  -4  -2   5  118.93   20.88   0
  -3 -10  -1  427.02   36.99   0
  -3  -9   0  366.19   34.68   0
  -3  -5   3 1601.60   41.18   0
  -1  -1   2  182.67   22.47   0
  -8  -3   6   33.49   28.92   0
  -5 -12  -1  151.39   35.22   0
  -5 -10   1  722.87   38.75   0
  -5  -6   4  376.96   30.65   0
  -5  -4   5  456.52   30.20   0
  -4  -8   2  272.05   28.65   0
  -4   3   5 1794.50   54.81   0
  -6  -7   4   26.67   26.51   0
  -6  -5   5   72.83   23.88   0
  -4 -12  -2   -0.49   36.71   0
  -4  -5   4 1386.49   39.49   0
  -3 -11  -2  243.02   39.41   0
  -3  -3   4  629.82   26.96   0
  -2  -5   2  112.60   19.03   0
   0   2  -1 2317.33   74.02   0
  -5   1   6  778.26   34.09   0
  -2  -3   3 1160.95   35.99   0
  -7  -6   5  148.67   28.13   0
  -7   3   6  364.32   38.80   0
  -6 -12   0  115.25   32.51   0
  -6 -11   1  256.40   35.11   0
  -6  -3   6   16.17   22.07   0
  -5 -13  -2  108.78   38.39   0
  -5  -8   3  501.53   31.00   0
  -4  -7   3  702.64   33.77   0
  -4  -3   5 1687.00   41.28   0
  -3  -7   2 1359.37   39.39   0
  -7  -8   4  107.42   29.04   0
  -7  -4   6  101.32   24.23   0
  -6   3   6  179.60   33.12   0
  -5   2   6  127.63   24.41   0
  -4 -13  -3  385.76   46.31   0
  -2  -8   0   58.36   23.64   0
  -1  -9  -3  193.92   36.57   0
  -1  -2   2   23.70   15.93   0
  -6  -9   3   24.73   25.04   0
  -5  -5   5 1076.87   38.09   0
  -5  -2   6  347.14   26.67   0
  -6  -6   5  363.45   32.84   0
  -5  -7   4  680.49   35.76   0
  -3  -4   4 1699.12   41.68   0
  -3   0   5   51.94   16.87   0
  -3   1   5 2105.09   50.78   0
  -6  -4   6  527.09   32.08   0
  -4   5   4 1577.88   86.93   0
  -3  -6   3 1090.76   35.80   0
  -8  -1   7   29.38   27.37   0
  -8   0   7  261.32   30.52   0
  -7  -7   5   25.21   30.80   0
  -7  -5   6   29.61   23.69   0
  -7  -1   7  641.54   36.42   0
  -7   0   7  239.03   30.43   0
  -6  -8   4  486.17   32.27   0
  -5  -3   6 1817.96   44.83   0
  -5   3   6  767.23   41.04   0
  -4 -10   1  274.86   33.50   0
  -4  -6   4  465.19   30.35   0
  -2  -4   3 2362.79   48.73   0
  -2   0   4 1021.94   36.80   0
  -2   5   0   11.17   33.84   0
  -8  -2   7  453.20   33.81   0
  -8   1   7  389.07   37.44   0
  -7  -2   7  122.85   29.12   0
  -7   1   7   32.91   28.83   0
  -5 -11   1    3.14   32.36   0
  -5 -10   2  277.88   34.21   0
  -4 -11   0   40.83   33.26   0
  -2  -6   2 1582.32   42.06   0
  -2  -1   4 1121.20   37.18   0
  -2   1   4 5117.92   82.89   0
  -1  -5   1   96.57   21.32   0
  -9   0   7  123.63   34.54   0
  -6  -1   7   16.31   25.99   0
  -6   0   7  403.83   30.45   0
  -6   1   7  986.79   39.17   0
  -5 -12   0  352.47   37.03   0
  -4  -1   6 2308.66   46.77   0
  -3 -10   0   15.09   27.91   0
  -3  -9   1  724.25   38.73   0
  -3  -2   5 1151.47   35.52   0
  -1 -10  -4  440.28   47.65   0
  -1  -3   2 1719.97   47.00   0
  -8  -3   7  278.60   32.24   0
  -7   2   7  591.73   39.85   0
  -6  -7   5  455.56   32.58   0
  -6  -5   6  542.81   33.41   0
  -5  -6   5  262.43   28.60   0
  -4  -8   3  260.96   26.76   0
  -4   4   5 2011.23   65.55   0
  -7  -6   6  325.01   30.15   0
  -6   4   6  235.45   36.90   0
  -5 -13  -1  350.36   40.62   0
  -5  -4   6  393.56   29.31   0
  -4  -2   6 1380.44   37.46   0
  -4   2   6 2384.51   54.68   0
  -3 -11  -1  345.97   38.24   0
  -3  -5   4  191.45   22.51   0
  -6   2   7  132.19   31.28   0
  -5  -8   4   79.68   24.32   0
  -4 -13  -2  367.79   46.11   0
  -4  -5   5   29.15   23.23   0
  -3  -3   5  214.55   22.08   0
   0  -6  -2  728.88   48.80   0
  -7  -4   7  454.81   32.16   0
  -6  -3   7  534.91   29.54   0
  -4  -7   4    9.61   22.55   0
  -3  -7   3  118.74   23.49   0
  -2  -5   3  747.59   30.43   0
   0  -7  -3  364.33   46.41   0
  -6  -9   4  377.92   31.89   0
  -5   1   7   34.14   23.08   0
  -5   5   5 2149.21   81.02   0
  -4  -3   6    5.19   21.38   0
  -3 -12  -2  694.76   49.39   0
  -7   3   7  455.00   39.46   0
  -6  -6   6   48.69   26.52   0
  -5  -5   6   54.86   27.96   0
  -5  -2   7  650.91   31.24   0
  -2  -9   0  664.15   36.69   0
  -2  -8   1 1008.94   38.93   0
  -2  -3   4 1674.53   40.39   0
  -1  -7   0  118.41   26.03   0
  -1  -4   2 2408.12   52.75   0
  -6  -8   5   12.57   27.32   0
  -6  -4   7  106.57   23.61   0
  -5  -7   5  129.09   26.18   0
  -5   2   7 1132.49   41.39   0
  -5   4   6 1115.43   49.40   0
  -3   3   5  455.94   33.80   0
  -2 -10  -1    3.58   31.98   0
  -8  -1   8  292.43   31.51   0
  -6   3   7  140.71   33.39   0
  -5 -11   2  396.67   36.57   0
  -4 -11   1  779.47   43.00   0
  -4 -10   2  401.04   35.83   0
  -4  -6   5  504.97   31.38   0
  -3  -4   5  650.39   29.09   0
  -1  -9  -2 1161.42   51.24   0
   0   1  -1 3744.20  109.05   0
  -8   0   8  222.81   30.49   0
  -7  -1   8   95.50   27.59   0
  -7   0   8  167.84   29.73   0
  -5 -12   1  262.83   36.30   0
  -5 -10   3   48.32   29.01   0
  -5  -3   7   79.76   22.79   0
  -1  -1   3  221.81   21.98   0
  -8   1   8   10.62   32.96   0
  -7  -2   8  518.26   34.50   0
  -4 -12   0  157.83   33.98   0
  -3 -10   1  494.71   35.68   0
  -3  -9   2   57.51   29.16   0
  -3  -1   6   16.60   17.04   0
  -3   0   6 2449.55   48.23   0
  -2  -4   4   53.49   18.32   0
  -1   0   3 2795.70   65.16   0
  -6  -7   6  182.10   29.68   0
  -6  -5   7  221.41   27.20   0
  -6  -1   8  702.00   35.75   0
  -6   0   8  359.64   30.65   0
  -5  -6   6  619.52   34.93   0
  -4  -8   4  521.41   31.57   0
  -3 -11   0  508.71   41.46   0
  -2  -6   3   47.34   19.22   0
  -6   1   8   27.71   24.81   0
  -5  -4   7  534.11   31.41   0
  -4  -1   7   17.25   18.02   0
  -3  -2   6  412.96   24.86   0
  -7   2   8  272.04   36.42   0
  -5  -8   5  638.69   32.01   0
  -5   3   7  510.57   35.93   0
  -4 -13  -1   84.17   40.45   0
  -3  -5   5 1184.64   36.69   0
  -2  -1   5 1333.41   37.73   0
  -2   0   5 3889.85   62.72   0
  -1 -10  -3  565.45   43.65   0
  -1  -5   2 1347.12   39.53   0
  -6  -3   8  182.91   26.50   0
  -4  -7   5  763.98   33.58   0
  -3 -12  -1    6.59   38.68   0
  -3  -7   4  908.42   35.23   0
  -1  -3   3 1213.63   38.41   0
   0   1  -2  216.35   26.17   0
  -6  -6   7  546.28   33.13   0
  -6   2   8  503.05   38.31   0
  -5   0   8  235.57   28.55   0
  -3  -3   6 1431.40   37.63   0
  -2  -2   5   42.10   16.07   0
  -6   4   7  536.42   44.70   0
  -5  -7   6  489.11   31.58   0
  -5  -5   7  351.15   30.88   0
  -4   2   7   45.77   21.03   0
  -2  -9   1  194.13   31.16   0
  -2  -8   2  255.64   28.76   0
  -2  -5   4 1088.74   34.32   0
  -2   1   5 1558.93   43.09   0
  -1   1   3 3830.65   84.31   0
  -6  -4   8  443.43   28.92   0
  -5  -2   8  768.83   31.35   0
  -5   1   8  871.85   36.65   0
  -4 -11   2   19.01   31.80   0
  -4 -10   3  376.44   36.32   0
  -2 -10   0  857.91   43.87   0
  -2  -3   5 1432.60   37.53   0
  -1  -8   0 1175.04   44.04   0
  -5 -10   4  296.31   32.11   0
  -4  -6   6  236.02   27.90   0
  -3  -6   5  498.35   30.45   0
  -3  -4   6  438.53   27.78   0
  -8   0   9   31.16   28.32   0
  -7  -1   9  277.26   30.56   0
  -7   0   9  309.66   30.39   0
  -5  -3   8  311.95   25.86   0
  -4  -4   7   88.64   24.27   0
  -4   4   6   16.25   27.97   0
  -1  -4   3  294.23   22.47   0
   0  -6  -1  520.77   38.82   0
  -7  -2   9    3.88   25.37   0
  -6  -5   8  104.29   26.74   0
  -6   3   8  750.64   44.52   0
  -5  -6   7  -10.59   25.16   0
  -5   2   8  262.57   29.46   0
  -4  -8   5   30.37   27.06   0
  -3 -11   1   30.02   32.94   0
  -3 -10   2  321.52   32.68   0
  -3  -9   3 1261.61   44.87   0
  -7   1   9    4.41   28.81   0
  -6  -1   9  131.95   28.71   0
  -4 -13   0  359.72   42.83   0
  -2  -6   4  918.91   34.46   0
  -2  -4   5 1663.37   40.55   0
  -6   0   9  157.41   28.24   0
  -5  -8   6   -1.19   24.48   0
  -5  -4   8   11.59   22.17   0
  -5   4   7   12.16   27.48   0
  -4   3   7  897.94   38.44   0
  -3  -1   7 2021.04   42.90   0
  -3   0   7  621.77   27.23   0
  -6   1   9  694.16   36.85   0
  -4  -7   6  170.38   24.70   0
  -4  -5   7  122.41   26.71   0
  -4  -1   8 1239.35   36.13   0
  -3 -12   0  309.26   44.05   0
  -3  -5   6  136.60   24.37   0
  -3   3   6 2089.10   54.98   0
  -3   4   5  687.45   44.93   0
  -1 -10  -2   75.16   32.55   0
  -1  -2   4  119.98   19.11   0
  -1  -1   4 5161.03   74.62   0
   0  -3   1  201.66   24.54   0
  -7   2   9  142.68   34.78   0
  -5   5   6  108.60   38.56   0
  -4  -2   8  188.91   23.43   0
  -4   1   8   12.42   21.11   0
  -4   5   5    8.18   38.24   0
  -3  -7   5   51.36   22.54   0
  -3   5   1  901.24   61.77   0
  -1  -5   3 1458.98   39.88   0
  -5  -7   7  378.26   30.65   0
  -5  -5   8  416.23   29.68   0
  -5   3   8  238.38   33.73   0
  -3  -3   7   76.43   22.40   0
  -2  -9   2 1278.68   44.70   0
  -2  -1   6 2448.56   47.59   0
  -2   0   6  917.37   32.44   0
  -1   0   4 2115.94   51.73   0
  -6   2   9  384.92   37.33   0
  -5   0   9  920.64   37.97   0
  -4 -11   3  261.00   35.11   0
  -4 -10   4   12.22   31.38   0
  -4  -3   8  332.77   27.04   0
  -2 -10   1   40.33   31.94   0
  -2  -8   3 1150.43   42.38   0
  -2  -5   5   61.87   19.69   0
  -2  -2   6 1781.99   41.17   0
  -1  -3   4 1792.34   42.81   0
   0  -8  -3   75.09   38.83   0
  -5  -2   9    2.20   23.20   0
  -4 -12   2  205.25   34.89   0
  -4  -6   7  750.34   33.76   0
  -4   2   8 1038.70   38.74   0
  -3  -6   6  927.52   36.12   0
  -2   4   1   35.39   31.33   0
  -1  -8   1    8.56   25.83   0
   0  -4   1 1488.99   49.45   0
  -5   1   9   52.51   23.79   0
  -4  -4   8  512.66   30.67   0
  -3 -10   3  221.62   34.58   0
  -3  -4   7 1194.16   38.29   0
  -3   2   7 2328.27   51.28   0
  -2 -11   0  248.46   39.42   0
  -2  -3   6   22.97   17.48   0
  -2   1   6  759.60   30.94   0
  -2   4   0 3031.03   88.21   0
  -1  -9   0  834.05   41.61   0
  -1  -7   2 1514.79   44.83   0
   0   0  -3  925.14   43.46   0
  -7  -1  10  189.45   27.85   0
  -7   0  10   -1.85   25.84   0
  -5  -3   9  179.63   23.89   0
  -4 -13   1   -0.19   34.21   0
  -4  -8   6  634.51   35.47   0
  -3 -11   2  495.21   37.10   0
  -3  -9   4   54.78   28.08   0
  -1  -4   4 1963.58   44.13   0
  -1 -11  -3  734.29   54.40   0
  -7   1  10  191.26   32.55   0
  -6  -1  10  158.58   29.08   0
  -6   3   9   -7.53   34.64   0
  -5  -4   9  288.61   27.17   0
  -5   2   9  442.82   32.83   0
  -2  -6   5  612.96   30.52   0
  -2  -4   6 1918.92   42.29   0
  -1   1   4  146.94   21.44   0
   0  -7  -1   55.16   27.33   0
  -6  -2  10   22.83   25.35   0
  -6   0  10  572.02   33.67   0
  -4  -7   7  171.90   24.37   0
  -4  -5   8  282.30   30.44   0
  -4  -1   9  308.98   26.51   0
  -4   4   7 1507.47   52.30   0
  -3  -1   8   -6.25   18.39   0
  -3   0   8  970.69   33.02   0
  -1   2   3  282.82   34.31   0
   0   0  -2 2954.78   89.26   0
  -6   1  10  131.75   28.76   0
  -4  -2   9  728.55   30.72   0
  -4   3   8 1193.91   42.11   0
  -3  -7   6  441.79   28.46   0
  -3  -2   8  818.36   32.75   0
  -5  -5   9   32.12   25.87   0
  -5   4   8  478.77   38.00   0
  -4   1   9  814.30   35.56   0
  -2 -10   2  465.07   38.31   0
  -2  -9   3   -2.88   27.63   0
  -1  -2   5 4400.16   63.11   0
  -1  -1   5 1151.46   35.92   0
   0  -3   2 5737.61   86.36   0
   0  -2   2 2254.69   58.51   0
  -7   2  10  206.95   37.73   0
  -4  -3   9  299.34   26.39   0
  -3  -3   8  561.39   29.45   0
  -3   3   7  694.56   34.37   0
  -2  -8   4  473.65   33.85   0
  -2  -5   6 1242.62   38.19   0
  -2  -2   7  745.22   29.49   0
  -2  -1   7  229.52   21.37   0
  -1  -3   5  670.46   28.77   0
   0  -8  -2 1187.31   57.59   0
  -6   2  10  125.67   32.97   0
  -5   0  10   43.40   24.35   0
  -5   3   9  911.11   43.14   0
  -4  -6   8   16.39   23.58   0
  -3  -6   7    5.71   22.96   0
  -2 -11   1  601.99   43.32   0
  -2   0   7 1213.38   35.08   0
  -1  -9   1  784.35   40.02   0
  -1  -8   2  855.25   38.87   0
  -1   0   5  166.82   19.67   0
   0  -7  -7 1948.24   80.74   0
  -5   1  10  796.78   36.71   0
  -3 -11   3  153.70   32.22   0
  -3 -10   4  394.52   34.36   0
  -3  -4   8    1.00   24.33   0
   0  -4   2  247.16   24.13   0
  -5  -3  10   86.54   23.05   0
  -5   5   7  554.99   46.08   0
  -4  -8   7   37.05   28.97   0
  -4  -4   9   27.39   23.53   0
  -4   2   9  948.81   38.07   0
  -3   2   8  129.28   21.93   0
  -3   4   6 1435.58   54.42   0
  -1 -11  -2  255.14   40.46   0
  -1  -4   5  573.30   27.98   0
   0  -1   2  222.63   25.10   0
  -3 -12   2   79.22   38.96   0
  -2  -6   6   64.91   23.77   0
  -2   1   7 2397.34   47.63   0
   0  -6   1  501.92   33.10   0
  -6  -1  11  211.98   28.26   0
  -4   5   6 1750.06   71.97   0
  -2  -4   7  113.81   22.74   0
  -7   1  11  187.24   32.16   0
  -6   0  11   35.76   27.35   0
  -5   2  10  773.55   39.32   0
  -4  -5   9  426.13   30.83   0
  -3  -7   7  339.44   26.22   0
  -3  -5   8  206.37   26.96   0
  -3  -1   9 1391.99   38.05   0
   0  -9  -4  484.72   72.20   0
  -6   3  10  611.59   43.38   0
  -4  -2  10   -1.09   20.28   0
  -3   0   9  461.25   26.69   0
  -2 -10   3  460.16   37.05   0
  -2  -9   4  717.53   38.25   0
  -1  -5   5 1399.55   38.73   0
  -1   1   5 1981.59   49.27   0
   0  -8  -1  866.15   47.07   0
  -6   1  11  281.60   31.31   0
  -4   4   8    3.87   27.65   0
  -3  -3   9  438.28   28.89   0
  -2  -8   5  212.99   29.13   0
  -2  -5   7  310.77   26.01   0
  -1  -8   3  469.08   34.27   0
  -1  -2   6  435.56   23.80   0
  -1  -1   6  800.30   30.05   0
   0  -2   3  703.47   32.34   0
   0  -1  -3   94.32   24.98   0
  -5  -1  11  154.63   27.46   0
  -4  -3  10  512.75   28.84   0
  -4   1  10  111.12   25.06   0
  -4   3   9  112.05   24.54   0
  -3 -10   5   19.46   30.52   0
  -2 -11   2   18.82   33.83   0
  -2  -2   8  345.48   25.90   0
  -2  -1   8 1132.66   34.20   0
  -1 -11  -1  406.46   42.66   0
  -1  -9   2  143.38   31.08   0
  -1  -3   6 2329.92   46.45   0
  -1   2   4 2781.04   72.39   0
   0  -9  -3  808.83   60.50   0
  -5   0  11  469.96   34.04   0
  -5   4   9   85.68   31.01   0
  -3 -11   4  168.60   33.16   0
  -3  -9   6  236.84   32.03   0
  -3  -6   8  420.58   28.71   0
  -3   3   8  330.36   28.10   0
  -2   0   8  732.56   28.93   0
  -1   0   6 3623.78   59.55   0
  -1   2  -1   51.39   24.58   0
   0  -4   3 2419.76   51.44   0
  -6   2  11  451.00   39.43   0
  -5   3  10   13.92   31.12   0
  -4  -4  10  507.04   31.16   0
  -3 -12   3  300.97   39.54   0
  -3  -4   9  947.58   37.14   0
  -2  -3   8  251.60   24.95   0
  -1 -10   1  914.62   47.32   0
  -1  -4   6  915.49   32.12   0
   0  -7   1  514.62   33.53   0
   0  -1   3 2984.86   64.15   0
  -5   1  11  214.71   30.49   0
  -4   2  10  155.67   26.30   0
  -2  -6   7  788.38   33.55   0
   0  -2  -4 4058.30   93.32   0
  -3   2   9  607.66   29.43   0
  -3   4   7    5.04   25.39   0
  -2  -4   8 1242.72   38.16   0
  -2   1   8   93.27   18.34   0
   0  -7  -6   68.73   43.90   0
  -3  -7   8   25.25   25.70   0
  -3  -5   9  169.02   25.94   0
  -2  -9   5  123.46   32.15   0
   0  -9  -2   91.10   34.27   0
  -5   2  11   24.68   27.75   0
  -3  -1  10  562.34   28.70   0
  -2 -10   4   12.51   30.48   0
  -2  -8   6  542.16   35.52   0
  -1  -5   6   23.39   20.43   0
  -1   1   6  907.10   33.40   0
   0  -6  -6  475.26   50.69   0
   0  -3   4 1113.06   35.86   0
   0  -2   4 2851.34   55.67   0
   0   0   2 3295.69   86.70   0
  -4  -2  11  572.54   30.84   0
  -4   0  11    6.39   23.33   0
  -4   5   7  246.96   37.97   0
  -2  -5   8  395.92   28.73   0
  -1  -9   3  558.22   36.17   0
  -1  -8   4  250.86   30.16   0
  -1  -1   7 1242.06   35.72   0
  -6   1  12  275.40   31.47   0
  -4  -3  11   -3.69   23.24   0
  -4   1  11  427.59   31.00   0
  -3  -3  10  191.31   25.68   0
  -2  -2   9  845.69   32.80   0
  -2  -1   9   87.06   22.32   0
  -1  -3   7  106.01   20.62   0
  -1   2   5 2522.12   60.84   0
   0  -7   2  492.28   33.37   0
   0  -4   4  101.90   18.53   0
  -4   3  10  776.81   37.34   0
  -4   4   9 1041.93   43.94   0
  -3  -6   9  144.03   26.71   0
  -2   0   9  675.73   29.74   0
  -2   3   7  704.29   35.30   0
  -1 -10   2  404.42   41.12   0
  -1   0   7  838.00   30.79   0
   0  -9  -1 1192.32   53.57   0
   0  -1   4  902.62   33.94   0
  -5   0  12   77.16   26.43   0
  -5   4  10  524.09   40.43   0
  -3  -4  10  140.25   26.39   0
  -3   3   9 1463.53   43.84   0
  -2  -3   9  430.45   29.82   0
  -1  -4   7  962.92   34.89   0
   0   0   3  967.56   41.57   0
  -6   2  12    9.83   35.92   0
  -5   1  12  167.18   28.62   0
  -5   3  11  398.12   38.42   0
  -2  -6   8   31.84   22.79   0
  -2   1   9 1763.39   41.93   0
   0  -5   4 2718.08   52.80   0
  -4   2  11  654.46   34.56   0
  -3   2  10  855.02   37.20   0
  -3   4   8 2022.69   54.58   0
  -2  -4   9   17.53   23.74   0
  -1   2   0 2203.48   97.93   0
   0  -4  -5 2839.47   85.10   0
   0  -3   5 1827.86   42.66   0
   0  -2   5  386.68   24.47   0
  -3  -5  10  410.04   30.85   0
  -2 -10   5  288.15   35.02   0
  -2  -9   6  173.27   31.26   0
  -1  -5   7  622.72   30.77   0
  -1   1   7  121.76   18.35   0
   0  -1  -2 2969.24  109.89   0
  -3  -2  11  114.18   22.39   0
  -3  -1  11  116.24   22.49   0
  -2 -11   4   93.81   33.66   0
  -2  -8   7   17.66   27.28   0
  -1  -9   4   50.38   31.02   0
  -1  -2   8 1316.07   36.37   0
  -1  -1   8   26.08   18.16   0
   0  -7   3 1115.04   41.30   0
   0  -4   5 2138.79   46.08   0
   0  -1   5 1683.70   43.43   0
  -4   0  12  365.15   30.80   0
  -2  -5   9  474.81   29.37   0
  -1 -10   3  217.08   39.31   0
  -1  -3   8 1616.78   41.26   0
   0  -8   2   44.95   27.37   0
   0   0   4 1911.60   50.22   0
  -4   5   8  463.75   41.41   0
  -2  -2  10   55.74   22.28   0
  -2  -1  10  535.35   29.22   0
  -2   0  10 1191.84   36.69   0
  -2   3   8  759.44   35.42   0
  -1   0   8 1005.14   33.02   0
  -4   1  12  302.45   30.52   0
  -4   3  11  135.86   29.67   0
  -4   4  10  456.04   37.47   0
  -2  -3  10  379.00   30.98   0
  -1  -4   8  177.31   24.92   0
  -1   1  -2 5549.06  109.20   0
   0  -5   5  302.03   24.12   0
   0  -3  -4   15.55   27.53   0
  -3   3  10  127.93   27.98   0
  -2  -6   9  437.20   29.22   0
  -1 -11   2  720.38   48.47   0
   0  -3   6    1.58   17.96   0
   0  -2   6  670.22   29.11   0
  -5   3  12  175.67   37.59   0
  -5   4  11  342.84   40.25   0
  -2  -4  10  498.79   32.09   0
  -1   1   8 2349.03   47.60   0
   0 -10  -2 1283.06   64.65   0
   0  -2  -3 2018.88   82.06   0
   0   0   5 6127.86   81.58   0
  -4   2  12   -7.24   27.28   0
  -3   2  11  149.87   25.81   0
  -3   4   9  387.31   31.37   0
  -2   3   0 6034.06  129.36   0
  -2   4   6  200.03   31.87   0
  -1  -9   5  352.04   36.80   0
  -1  -8   6   16.11   29.73   0
  -1  -5   8  387.13   27.22   0
  -1   2   7 1574.01   42.09   0
   0  -8   3  463.24   36.18   0
   0  -7   4   -0.09   27.48   0
   0  -5  -5   26.30   30.52   0
   0  -4   6  272.89   23.90   0
   0  -1   6 1161.73   35.41   0
  -1 -10   4  470.16   39.41   0
  -1  -2   9  108.11   23.92   0
  -1  -1   9 1070.04   35.72   0
   0 -10  -1   17.04   36.47   0
  -3  -2  12  209.16   24.98   0
  -2  -5  10   -2.08   25.78   0
  -1  -3   9  359.99   27.77   0
  -1   0   9 1430.74   38.28   0
   0  -5   6 1102.18   37.46   0
  -5   2  13   69.61   30.46   0
  -4   0  13  116.94   26.69   0
  -4   5   9  594.82   41.67   0
  -3   5   6    9.06   37.91   0
  -2  -2  11  430.35   29.02   0
  -2  -1  11  322.57   25.82   0
  -2   3   9   71.23   21.20   0
  -1  -6   8  933.82   36.88   0
  -1  -4   9  500.17   30.43   0
   0  -9   2  382.86   40.65   0
   0   0   6   53.15   17.72   0
  -4   4  11  173.81   33.77   0
  -3   1  12  116.21   25.97   0
  -2  -3  11   96.73   25.64   0
  -2   0  11   28.20   20.52   0
  -2   4   7 1848.42   56.19   0
  -1 -11   3   62.21   38.25   0
   0 -10   0  834.95   49.56   0
   0  -3   7 2377.06   47.26   0
   0  -2   7  721.61   30.29   0
  -4   1  13    6.90   25.53   0
  -4   3  12  354.58   34.12   0
  -3   3  11 1142.88   40.60   0
  -1   1   9  178.55   21.46   0
  -1   2   8  494.74   27.92   0
   0  -8   4  321.72   34.44   0
   0  -7   5 1048.85   42.39   0
   0  -1   7    5.63   17.25   0
  -3   4  10  567.14   35.85   0
  -3   5   7 1287.33   59.77   0
  -2  -4  11  226.39   28.79   0
  -1  -9   6  276.47   35.14   0
  -1  -8   7  621.45   39.09   0
  -1  -5   9  160.66   24.49   0
   0  -6  -5 1179.26   73.74   0
   0  -4   7  317.22   26.01   0
   0   1   4 1951.68   55.49   0
  -5   3  13  120.73   37.97   0
  -4   2  13  349.68   32.82   0
  -3   2  12  486.38   32.30   0
  -1 -10   5   19.60   33.22   0
  -1  -1  10  287.92   27.36   0
   0  -9   3    2.88   35.05   0
   0   1   3   90.06   22.11   0
   0   1   5  120.74   19.77   0
  -1  -7   8  143.74   29.11   0
  -1  -3  10  217.95   28.78   0
  -1   0  10    9.44   22.33   0
   0  -5   7  230.63   25.37   0
   0   0   7 1362.44   38.40   0
  -2   3  10 2075.39   49.37   0
  -2   4   8    4.31   22.31   0
   0  -2   8  402.73   25.90   0
  -4   5  10   56.03   32.93   0
  -3   5   8  675.00   44.71   0
  -2  -2  12  142.86   26.67   0
  -2  -1  12   56.93   22.09   0
  -1 -11   4  313.91   42.79   0
  -1  -4  10   55.79   25.32   0
  -1   2   9 1519.43   40.85   0
   0  -3   8  228.65   25.64   0
   0  -1   8 1588.03   39.98   0
   0   1   6 1210.40   38.81   0
  -3   1  13  343.01   31.98   0
  -1   1  10  979.38   34.45   0
   0  -8   5  118.46   31.59   0
   0  -7   6  171.50   29.47   0
   0  -4   8  524.98   29.36   0
   1  -5   0 2597.28   74.33   0
   1  -3   2   48.06   21.98   0
  -4   3  13  263.11   31.41   0
  -4   4  12  383.04   39.42   0
  -3   3  12  301.80   31.77   0
  -1  -9   7   40.88   32.50   0
   0  -9   4  636.53   42.16   0
   1  -3   3 1735.36   47.67   0
  -3   4  11 1005.86   41.72   0
  -2   4   9  617.50   35.05   0
  -1 -10   6  333.60   37.00   0
  -1  -8   8  127.04   30.05   0
  -1  -5  10  537.05   30.38   0
  -1  -2  11   97.34   26.68   0
  -1  -1  11  237.09   26.32   0
   0   1   7 1481.78   41.15   0
   1  -6   2    7.22   22.49   0
   1  -4   4 2440.15   52.76   0
   1  -3   4 1379.42   41.45   0
  -3   2  13   34.52   28.39   0
  -1  -3  11  565.75   31.83   0
  -1   0  11 1272.04   38.04   0
   0  -5   8  417.96   29.19   0
   0  -2   9 1657.78   43.02   0
  -4   2  14  161.44   30.55   0
  -2   3  11  367.38   31.17   0
   0  -3   9  711.71   33.99   0
   0  -1   9  186.67   24.87   0
   0   1   2 3520.64  110.60   0
   1  -6   3 1772.77   50.68   0
   1  -2   3 2470.95   57.88   0
  -2   2  12    1.34   24.37   0
  -1  -4  11  235.24   28.91   0
   0  -7   7  300.97   32.94   0
   1  -4   5   99.82   21.50   0
   1  -3   5 1123.23   36.79   0
   1  -2   4  134.98   20.76   0
   1  -3  -5   16.95   20.18   0
   2  -4  -7 1725.72   45.91   0
   5  -5  -9  190.36   29.48   0
   5  -4 -12   16.67   29.35   0
   6  -5  -6  895.60   47.54   0
   8  -4  -3  155.75   51.02   0
  -1   1  -7 1849.91   65.06   0
  -1   3  -8  595.06   56.42   0
   0  -1  -2 3642.98  106.98   0
   2  -4  -8   16.64   21.54   0
   2  -4  -6  188.23   23.55   0
   3  -1 -14   -7.63   31.86   0
   4  -5  -7  269.97   30.21   0
   7  -5  -8  366.44   40.37   0
   7  -5  -7  203.70   42.88   0
   4  -5  -9  573.63   34.75   0
   4  -5  -6 1786.60   49.67   0
   5  -5 -10  709.24   37.01   0
   5  -5  -5 2256.18   62.90   0
   6  -5 -10    6.39   31.32   0
   6  -5  -5    9.79   33.81   0
   7  -5  -9  102.20   37.34   0
   7  -5  -6  135.30   41.83   0
  -1   2  -8 1080.35   58.45   0
   0  -2  -6 2434.02   59.63   0
   1  -3  -9 2609.85   53.75   0
   1  -2 -11    5.23   27.63   0
   2  -4  -5 1403.48   44.52   0
   6  -3   1  105.32   54.74   0
   0  -2  -7   13.25   18.01   0
   1  -3  -4 9999.99  121.05   0
   4  -5 -10   62.81   24.68   0
   5  -5 -11    3.00   27.28   0
   7  -5  -5  619.25   51.31   0
   0  -2  -5  494.93   32.53   0
   0   1 -11  866.94   49.62   0
   2  -2 -13  744.54   39.03   0
   3  -5  -8  649.93   34.25   0
   3  -5  -7 1207.06   41.75   0
   3  -4 -12   16.68   23.64   0
   3  -2 -14  213.57   33.21   0
   4  -4 -13    9.71   25.56   0
   5  -5  -4    5.18   33.82   0
   6  -5  -4  713.21   52.39   0
   6  -4  -1  160.57   45.01   0
   8  -5  -7  197.70   39.47   0
   0  -2  -8 2856.82   59.32   0
   0  -1 -10  112.24   29.69   0
   1  -3 -10   13.59   21.46   0
   2   0 -14  153.74   39.83   0
   3  -5  -9  352.28   31.00   0
   4  -5 -11  639.41   36.27   0
   8  -5  -6  253.72   45.22   0
  -1   0  -6 2885.47   76.44   0
  -1   1  -8   60.90   34.06   0
   1   1 -13    3.84   42.04   0
   3  -5  -6   11.44   22.38   0
   5  -5 -12  390.28   34.05   0
   7  -5  -4  129.84   48.86   0
   7  -4  -1  696.00   62.17   0
   0   0 -11   35.09   34.63   0
   1  -2  -1  350.50   41.35   0
   2  -1 -14  482.90   39.80   0
   4  -5 -12   21.74   26.52   0
   4  -5  -4 1582.71   54.98   0
   5   0   5   66.88   78.04   0
   8  -5  -5   -7.57   46.31   0
   0  -2  -4 4174.22   85.83   0
   1   2   4 2267.24   78.72   0
   3  -5 -11   -4.74   25.11   0
   3  -5  -5 1068.18   43.74   0
   3  -3 -14  365.26   35.06   0
  -1   0  -7  112.79   29.02   0
   2  -3 -13  265.64   32.23   0
   6  -6  -8  741.55   46.99   0
   6  -5  -3  179.66   50.25   0
  -1   0  -4 4762.12  115.72   0
   1  -4  -7   36.23   21.42   0
   1  -3  -3 2617.20   69.55   0
   1  -1 -13  694.18   42.36   0
   2  -2 -14   78.92   34.57   0
   5  -6 -10  141.56   29.00   0
   5  -6  -7  830.03   47.47   0
   5  -5  -3  822.42   50.09   0
   6  -6  -7   58.42   40.12   0
  -1   2  -9  150.84   44.32   0
   0  -2 -10  320.16   30.76   0
   0  -1 -11  891.44   43.26   0
   1  -4  -9   24.13   22.31   0
   2  -5  -9 1025.36   37.94   0
   2  -5  -8  718.59   34.45   0
   4  -6  -9   90.77   28.09   0
   4  -6  -8  516.34   35.05   0
   4  -5 -13  248.31   29.98   0
   7  -6  -8    7.79   37.76   0
  -1   0  -8 1104.54   50.08   0
   1  -4  -6 3021.35   62.63   0
   2  -5 -10  149.44   27.28   0
   2  -5  -7  468.72   31.28   0
   3   1   5 1995.40   95.41   0
   5  -6  -6  365.43   43.00   0
   6  -6  -6  492.48   48.39   0
   7  -6  -7  390.13   44.40   0
   0   1 -12   41.82   39.99   0
   1  -4 -10  936.77   36.65   0
   1  -3 -12  155.29   30.35   0
   1  -2 -13   24.76   32.73   0
   2  -4  -3   30.81   22.86   0
   4  -6 -11  261.79   31.47   0
  -1   2  -1   67.46   40.89   0
   0   0 -12  738.51   49.45   0
   0   2   2 1458.89   67.76   0
   2  -5  -6 1550.87   47.23   0
   2  -3 -14   68.16   31.93   0
   3  -5 -13  114.46   24.93   0
   7  -6  -6  134.33   42.16   0
   0  -3  -8 1684.10   46.60   0
   0  -3  -7 2022.43   52.01   0
   1  -4 -11  638.11   35.21   0
   3  -6  -9 1250.25   43.53   0
   4  -3   1   30.44   48.21   0
   0  -3  -9  520.25   30.79   0
   0  -2 -11 1029.97   43.79   0
   1  -4  -5 2945.69   64.73   0
   3  -6 -10  387.54   32.19   0
   3  -6  -8  143.32   29.54   0
   5  -6  -5  396.76   44.91   0
   6  -6  -5  470.48   49.85   0
  -1   0  -9  543.43   42.37   0
   0  -2  -3 2202.86   69.99   0
   0  -1 -12  522.78   44.23   0
   1  -3 -13  445.25   37.07   0
   1  -1 -14   15.15   39.72   0
   2  -5 -12  111.39   26.56   0
   7  -6  -5  144.29   53.07   0
   2  -5  -5   55.38   23.87   0
   2  -4 -14  481.60   36.00   0
   3  -5 -14  177.53   30.92   0
   1  -2 -14  615.29   41.64   0
   2  -3 -15  405.76   38.05   0
  -1   4   0  961.95   55.55   0
   0  -3  -5 3632.23   73.31   0
   0  -2 -12   -0.81   32.11   0
   3  -6  -6  618.53   38.20   0
   6  -7 -10  331.26   38.66   0
   6  -7  -9  289.57   41.56   0
  -1   1 -10  512.68   46.05   0
   0  -3 -11    5.73   28.72   0
   1  -5  -9  481.66   31.53   0
   1  -5  -8  901.62   37.60   0
   3  -6 -13   56.70   25.89   0
   5  -7  -8  552.62   45.22   0
   6  -7  -8  100.08   42.71   0
   6  -6  -4  120.04   49.43   0
  -1  -1  -9   29.42   29.02   0
  -1  -1  -5 5062.58  100.21   0
   0   0 -13  122.89   44.70   0
   1  -5 -10 1075.45   39.02   0
   1  -4 -13  584.27   37.96   0
   1  -4  -4  459.22   33.45   0
   1  -3  -2 2637.14   77.66   0
   2  -6  -9    9.84   25.48   0
   4  -7 -11    5.10   27.94   0
   4  -7 -10  600.51   35.27   0
   4  -7  -9  280.82   32.71   0
   5  -6  -4  474.27   47.59   0
   7  -7  -8  221.47   43.88   0
  -1   0 -10  397.48   40.94   0
   0  -1 -13   93.94   40.46   0
   1  -5 -11   50.46   25.92   0
   1  -5  -7 2673.73   57.82   0
   1  -3 -14  430.04   36.67   0
   2  -6 -11  161.74   28.89   0
   2  -4 -15  111.65   31.79   0
   5  -7  -7   58.04   38.38   0
   6  -7  -7  513.02   48.04   0
   7  -6  -4  638.49   61.15   0
   2  -5  -4 1592.97   53.34   0
   2  -4  -2 3834.43   90.34   0
   0  -4  -9 4213.35   68.56   0
   0  -4  -8   34.75   20.77   0
   0  -3 -12  513.08   38.43   0
   1  -5 -12 1050.14   38.94   0
   2  -6  -7  507.62   33.96   0
   3  -7 -10  102.41   29.69   0
   4  -6  -4  134.72   37.38   0
   7  -7  -7   51.41   42.87   0
  -1  -1 -10 1698.24   56.40   0
   0  -4 -10  366.10   28.22   0
   0  -4  -7 2182.92   53.11   0
   0  -2 -13  727.98   45.68   0
   1  -5  -6  974.66   40.21   0
   1  -2 -15  248.18   41.33   0
   3  -7 -11  712.23   37.67   0
   3  -7  -9  459.70   35.03   0
   6  -7  -6   14.67   44.31   0
   1  -4 -14   24.35   30.55   0
   2  -6 -13  449.71   30.97   0
   3  -7 -12    0.07   28.41   0
   5  -7  -6  650.75   48.55   0
  -1  -2  -9 1400.97   49.64   0
   0  -3  -4   12.52   20.57   0
   1  -3 -15    0.88   32.67   0
   2  -6  -6  531.40   36.02   0
   2  -5 -15    3.18   29.73   0
   3  -7 -13  370.30   32.49   0
   7  -7  -6  344.74   55.74   0
  -1   0 -11  585.93   47.09   0
   0  -3 -13  400.12   37.97   0
   2  -6 -14   21.88   29.66   0
   4  -7  -6   41.10   39.05   0
   0  -4 -12  581.09   38.99   0
   0  -4  -6 1265.44   44.43   0
   0   3   2  713.19   44.62   0
   1  -6 -10   38.51   27.40   0
   3  -7  -7   -2.52   30.36   0
   5  -8 -10  660.80   43.84   0
  -1  -2 -10  816.01   40.95   0
  -1  -2  -6    3.17   22.96   0
  -1  -1 -11  123.43   37.30   0
  -1  -1  -4 2624.46   79.01   0
   1  -6 -11  657.21   36.90   0
   1  -6  -9 1650.35   46.58   0
   2  -7 -11  147.24   32.02   0
   2  -7 -10  656.39   37.00   0
   4  -8 -11  449.89   34.43   0
   5  -8  -9   19.50   40.05   0
   6  -8  -9  459.13   45.09   0
   0  -2 -14  202.59   44.03   0
   1  -6 -12  275.67   29.71   0
   1  -6  -8  111.67   26.05   0
   1  -5 -14  246.04   32.94   0
   1  -5  -5 3035.19   65.96   0
   1  -4 -15  244.50   34.85   0
   1  -4  -3 1954.40   60.25   0
   2  -7 -12  629.46   37.68   0
   4  -8 -12  108.02   30.80   0
   4  -8 -10   27.66   32.03   0
   5  -7  -5   57.74   44.69   0
   6  -7  -5  702.79   60.19   0
   5  -8  -8  302.29   45.51   0
   6  -8  -8   82.10   41.58   0
  -1  -2 -11  174.25   32.35   0
   0  -5 -11  853.75   38.70   0
   0  -5 -10   36.69   22.69   0
   0  -5  -9 2023.26   50.23   0
   0  -4 -13   18.21   29.73   0
   0  -3 -14  126.44   36.02   0
   1  -6 -13  242.55   28.53   0
   2  -7 -13   29.25   26.84   0
   2  -7  -8  118.83   31.51   0
   2  -6  -5 1578.87   51.03   0
   2  -5  -3  811.28   46.01   0
   4  -6  -3  509.55   48.43   0
  -1   4  -1 2466.60   86.03   0
   0  -5  -8 2042.50   51.49   0
   0  -2  -2 1506.18   65.13   0
   1  -6  -7 1962.49   51.82   0
   1   2   3 1300.84   62.99   0
   3  -8 -11  102.13   30.28   0
   3  -8 -10  680.73   39.32   0
   4  -8  -8  152.34   40.70   0
   4   1   5  270.80   58.64   0
  -1  -3 -10    8.59   26.79   0
  -1  -1 -12  314.42   43.11   0
  -1   0 -12   19.11   40.56   0
   0  -4  -5 2944.75   65.65   0
   1  -5 -15  360.03   36.11   0
   3  -8 -13  242.03   32.45   0
  -1  -2  -5 5658.63   97.63   0
   2  -7  -7 1322.21   47.90   0
   3  -8  -9   47.57   29.89   0
   5  -8  -7  350.53   46.94   0
   6  -8  -7  347.48   46.24   0
  -1  -3  -7  328.76   28.86   0
  -1  -2 -12  814.59   49.69   0
   0  -5  -7  109.99   24.73   0
   4  -5  -1 1538.06   73.90   0
  -1  -3 -11 1284.13   47.15   0
   1  -7 -11  855.46   40.84   0
   1  -7 -10  758.35   38.29   0
   4  -8  -7  243.82   42.71   0
   6  -7  -4  249.65   56.37   0
   0  -3 -15  323.36   45.25   0
   0  -3  -3 2419.24   68.66   0
   1  -7 -12   29.33   27.30   0
   1  -6 -15    3.78   31.70   0
   1  -6  -6 1214.21   44.60   0
   1  -5  -4  567.89   36.14   0
   2  -8 -12  298.14   34.42   0
   3  -3   1 1391.27   92.21   0
   6  -6  -2    1.67   51.86   0
   1  -7 -13  951.30   38.07   0
   1  -7  -9  784.99   39.23   0
   2  -8 -10   10.01   30.34   0
   3  -7  -5   25.86   30.36   0
   3  -6  -3   57.47   37.62   0
   5  -9 -10  198.94   39.23   0
   5  -3   2    9.98   94.00   0
  -1  -3 -12  393.19   37.26   0
  -1  -3  -6 1461.29   48.38   0
   0  -6 -11  537.62   34.20   0
   0  -6 -10  593.58   35.40   0
   0  -5 -14  320.45   37.74   0
   2  -7  -6   30.33   29.78   0
   5  -8  -6  174.38   45.52   0
   6  -8  -6  291.95   55.16   0
  -1  -2 -13    3.60   40.83   0
  -1  -1 -13  536.41   48.87   0
   0  -6 -12  227.32   28.43   0
   0  -6  -9   41.05   24.13   0
   0  -5  -6 2962.18   62.25   0
   0  -4 -15   65.92   32.27   0
   1  -7 -14  103.78   30.67   0
   1  -7  -8 1529.28   47.11   0
   2  -8 -14  346.16   32.10   0
   2  -8  -9  992.46   44.85   0
   4  -7  -4  465.18   44.86   0
   5  -9  -9  419.87   47.77   0
  -1  -4  -8 3071.15   61.71   0
   3  -9 -12  498.24   36.82   0
   3  -9 -11  285.04   33.59   0
   4  -8  -6  700.33   50.13   0
  -1  -3 -13  316.13   43.27   0
   0  -6  -8 1666.33   47.15   0
   0  -4  -4 4204.41   80.71   0
   4  -9  -9   90.11   39.42   0
  -1  -4 -12  244.99   34.30   0
   0  -5 -15   94.61   33.15   0
   0   2   1 2998.41  101.75   0
   2  -8  -8  689.07   40.56   0
   3  -9 -10  313.79   37.26   0
   5  -9  -8   -0.18   40.52   0
   6  -9  -8  290.50   48.43   0
   0  -6 -14   37.05   31.12   0
   1  -8 -12  676.33   37.52   0
   1  -7  -7  109.62   26.79   0
   1  -6  -5  721.01   37.87   0
   1  -4  -2   66.71   27.25   0
   5  -4   1  462.52   76.69   0
  -1  -4 -13 1209.61   47.79   0
  -1  -4  -7  270.92   26.23   0
  -1  -2  -4 2343.47   67.69   0
   0  -4 -16  188.55   42.16   0
   1  -8 -13  515.63   34.39   0
   1  -8 -11   47.88   31.23   0
   4  -9  -8  678.22   49.82   0
   5  -8  -5  802.45   63.50   0
   6  -8  -5  119.50   53.87   0
  -1  -5 -10 1440.78   42.85   0
   0  -7 -12  979.34   39.42   0
   0  -7 -11   39.22   28.03   0
   0  -6  -7  527.46   33.40   0
   1  -8 -10  984.81   43.29   0
   2  -9 -12   78.65   29.56   0
   2  -9 -11  429.97   35.67   0
   3  -8  -6  538.83   45.77   0
   3  -7  -4  567.14   46.17   0
   4   0   4 1618.77  103.70   0
  -1  -5 -12 1025.82   44.50   0
  -1  -5  -9  326.36   27.88   0
  -1  -3 -14  425.00   46.90   0
  -1  -3  -5  318.80   28.37   0
   0  -7 -13   51.69   28.00   0
   0  -7 -10 1298.31   45.46   0
   0  -6 -15  422.83   36.86   0
   0  -5 -16  290.41   37.00   0
   0  -5  -5   17.89   23.16   0
   2  -8  -7  929.18   43.99   0
  -1   4  -2 1533.49   74.42   0
   1  -8  -9   60.94   30.98   0
   2  -9 -10  433.12   35.93   0
   4  -8  -5   14.45   42.41   0
   5  -9  -7  271.08   46.96   0
   6  -9  -7   13.03   51.84   0
  -1  -5 -13  292.84   34.79   0
  -1  -4 -14   34.32   36.76   0
  -1   5  -3  527.71   53.14   0
   0  -7  -9 1260.87   42.78   0
   3   1   4   83.72   39.24   0
   4  -9  -7  -12.35   43.50   0
  -1  -5  -8  901.06   37.26   0
  -1  -4  -6 2608.39   60.24   0
   0  -6 -16   40.21   33.15   0
   3 -10 -12    6.91   31.50   0
   4 -10 -10  537.23   46.87   0
  -2  -1  -9 2403.05   70.60   0
  -2   0  -9  509.84   47.16   0
  -2   0  -8  608.55   48.45   0
   0  -7 -15  151.62   34.76   0
   1  -8  -8 1354.82   48.24   0
   1   1   2 3538.35  125.22   0
   2  -9  -9   86.28   30.31   0
  -2  -1  -8  372.56   38.93   0
  -1  -6 -11  713.60   36.84   0
  -1  -5 -14  392.12   38.41   0
   0  -7  -8  106.87   26.56   0
   0  -6  -6  452.05   32.11   0
   1  -9 -13   27.27   28.02   0
   1  -9 -12  562.37   39.75   0
   5 -10  -9  317.64   46.58   0
  -2  -1 -10  115.23   35.48   0
  -2   0  -7 2076.78   72.96   0
  -2   1  -8 1668.15   78.07   0
  -1  -6 -10  274.06   28.17   0
   0  -8 -12  185.59   30.46   0
   1  -9 -14  466.16   35.09   0
   1  -9 -11  154.70   33.93   0
   3  -9  -7 1300.70   58.40   0
   3  -8  -5 1020.25   56.18   0
   4 -10  -9  104.54   42.63   0
  -2  -2 -10  522.38   41.03   0
  -2  -2  -9  605.99   39.22   0
  -2   0 -10  911.91   58.65   0
  -2   1  -7   45.25   43.36   0
  -1  -6 -13  142.05   31.61   0
  -1  -5  -7 1433.87   44.32   0
  -1  -4 -15  509.50   45.64   0
   0  -8 -13  394.90   31.24   0
   0  -8 -11  986.23   41.80   0
   2 -10 -12  602.03   38.28   0
   5  -9  -6  109.57   50.48   0
  -2  -2  -8 1557.81   53.84   0
  -2  -1  -7 2389.26   69.88   0
  -2   1  -9   50.58   44.84   0
  -1  -6  -9 1930.17   49.27   0
   0  -8 -14  437.84   34.22   0
   0  -4  -3  812.31   41.51   0
   1  -9 -10   81.93   32.11   0
   5  -6  -1  278.46   58.00   0
  -2  -2 -11  689.43   45.79   0
  -2  -1 -11  589.25   47.88   0
  -1  -6 -14  840.35   43.91   0
  -1  -5 -15  318.98   36.23   0
   0  -8 -10   33.50   28.31   0
   0  -3  -2  617.49   41.58   0
   2 -10 -11   19.39   28.12   0
   2   1   3   29.77   33.39   0
   3 -10  -9  565.93   45.98   0
   4  -9  -6  855.56   55.88   0
   5 -10  -8   98.44   46.34   0
  -2  -3 -10 1529.94   49.39   0
  -2  -3  -9   94.94   28.10   0
  -1   3  -2   53.16   35.61   0
  -1   5  -4  340.70   52.93   0
   0  -7  -7 1910.75   51.78   0
   0  -5  -4 3419.33   71.38   0
   3  -7  -3 1330.14   60.80   0
   4 -10  -8  224.82   46.73   0
  -2  -3 -11  253.06   34.20   0
  -1  -7 -12   -1.05   28.29   0
  -1  -6  -8  475.46   31.49   0
  -1  -4  -5 2209.67   57.25   0
  -1  -3  -4 3741.93   78.16   0
   0  -8  -9 1219.74   44.04   0
   1  -9  -9  568.28   40.24   0
   1  -7  -5  614.38   36.82   0
   2 -10 -10  602.65   38.93   0
   4  -4   1  815.53   81.47   0
  -2  -2 -12   82.99   37.30   0
  -2  -2  -7  247.71   31.23   0
  -2   0  -6    6.53   31.71   0
  -1  -7 -11  503.10   32.85   0
  -1  -6 -15   13.28   32.38   0
   4  -5   0    3.50   48.97   0
  -2  -4 -11  402.31   35.99   0
  -2  -4 -10  284.23   32.18   0
  -2  -3 -12  667.58   46.20   0
  -1  -7 -14   73.91   31.99   0
  -1  -7 -10  511.88   34.90   0
  -1  -5 -16   73.92   41.84   0
  -1  -5  -6  477.31   31.12   0
   0  -9 -13  815.29   37.92   0
   0  -6  -5 1201.14   44.22   0
   1 -10 -12   59.68   33.35   0
   3  -9  -6  199.26   43.04   0
  -2  -1  -6 3261.45   82.63   0
   0  -9 -14   63.08   24.73   0
   0  -9 -12  163.23   30.48   0
   3 -10  -8  636.46   48.06   0
   4  -6  -1 1234.38   70.77   0
  -2  -4 -12  874.48   43.53   0
  -1  -7 -15  225.81   35.34   0
  -1  -6 -16  269.06   36.44   0
  -1  -2  -3 1268.29   55.42   0
   0  -8  -8  241.59   29.62   0
   1  -9  -8    7.92   29.44   0
   5 -10  -7  109.47   51.99   0
   5  -9  -5  349.36   58.17   0
  -2  -3 -13  382.45   44.52   0
  -1  -7  -9  371.27   29.30   0
  -1  -6  -7  327.32   29.11   0
   0  -7  -6   92.01   26.32   0
   1  -8  -6  140.11   29.92   0
   2 -11 -12  406.68   35.38   0
   3  -8  -4  180.68   40.51   0
   4 -10  -7  378.50   49.45   0
  -2  -5 -11 1154.19   45.81   0
  -2  -4 -13   45.39   38.19   0
  -1   4  -3   12.67   40.55   0
   0  -2  -1 2920.81   95.50   0
   4  -9  -5  358.76   56.09   0
  -2  -5 -12    1.16   28.91   0
  -1  -8 -12 1008.86   39.22   0
  -1  -7 -16  151.19   33.60   0
   1 -10 -10   54.05   30.90   0
   1  -6  -3   45.54   28.39   0
   2 -11 -11  253.09   41.10   0
   2  -6  -2   91.77   37.09   0
  -2  -5 -13  809.73   43.48   0
  -1  -8 -11   25.70   27.25   0
   1   2   2 3578.86   98.82   0
   2  -9  -6  658.03   47.46   0
   3 -10  -7  184.14   45.34   0
   5   0   4 1764.71   93.71   0
  -2  -4 -14  599.14   47.37   0
  -1  -8 -15  322.30   35.27   0
  -1  -7  -8 2097.08   50.95   0
   0 -10 -13   58.45   28.44   0
   0  -9  -9  278.08   34.37   0
   0  -8  -7  488.41   35.16   0
  -2  -6 -12  880.83   41.83   0
  -2  -5 -14  283.85   40.73   0
  -1  -8 -10 1332.99   45.13   0
   0 -10 -12  551.85   38.90   0
   1 -10  -9  613.36   39.47   0
   1  -7  -4 2130.84   58.86   0
   2  -7  -3  878.84   49.18   0
   3 -11  -9   60.32   40.66   0
   3  -9  -5  889.73   55.65   0
  -2  -6 -13  420.48   37.67   0
  -1  -5  -5 3441.58   67.63   0
   1 -11 -12  254.52   35.88   0
  -2  -4  -7 1893.04   50.77   0
  -1  -9 -13   21.10   25.52   0
  -1  -6  -6 1265.52   42.31   0
  -1  -4  -4 1039.25   42.03   0
   0 -10 -11   16.16   33.64   0
   0  -6  -4   29.53   22.73   0
   0  -5  -3  805.39   41.93   0
   1   3   2   26.16   18.78   0
   2   2   3 6516.39  125.68   0
   4 -11  -8   11.17   41.78   0
   4 -10  -6   13.44   49.59   0
  -2  -6 -14   14.61   31.98   0
  -2  -5  -8 1414.05   42.91   0
  -2  -3  -6  251.39   29.21   0
  -1  -8  -9  362.36   32.56   0
   1 -11 -11  161.06   31.94   0
   2  -8  -4 1051.86   52.80   0
  -2  -5 -15  212.15   40.45   0
  -1  -7  -7   37.79   23.35   0
   0  -7  -5 2079.11   54.98   0
   2 -11  -9  899.00   50.91   0
   2 -10  -7 1020.81   52.62   0
   3  -6  -1  266.96   45.29   0
  -2  -7 -13   -9.78   28.72   0
  -2  -6 -15  572.24   39.41   0
  -2  -6  -9  187.45   25.32   0
  -2   0  -5 1873.37   78.74   0
  -1  -9 -11  715.58   37.83   0
   0 -10 -10  613.73   40.01   0
   1 -10  -8  776.19   42.10   0
   3 -11  -8  528.29   51.97   0
  -2  -7 -14  327.70   37.88   0
   0  -8  -6 2418.54   58.68   0
   0  -4  -2 1184.31   49.52   0
   1 -11 -10  595.87   39.33   0
   3 -10  -6  706.13   53.51   0
  -1  -9 -10  612.81   38.68   0
  -1  -8  -8  942.45   38.66   0
  -1  -3  -3  343.21   30.06   0
   2  -9  -5  325.14   44.21   0
   3  -8  -3  440.03   51.18   0
  -2  -7 -15  138.59   33.64   0
  -2  -7 -10  352.62   30.44   0
  -2  -5  -7  304.78   25.98   0
  -1 -10 -14  172.66   28.52   0
   0 -11 -12  258.30   35.72   0
  -2  -6 -16   10.59   39.87   0
  -2  -6  -8 2220.24   51.76   0
  -2  -2  -5  134.80   25.98   0
  -1 -10 -13  341.75   32.13   0
   0 -10  -9  411.66   37.68   0
   2 -11  -8   85.51   42.06   0
   4 -11  -7  220.66   52.91   0
  -2  -8 -14  525.29   37.22   0
  -2  -7 -16   99.62   37.12   0
  -1 -10 -12   16.50   29.41   0
   0 -11 -11  515.31   38.26   0
   0  -9  -7  255.16   34.25   0
   0   3   0 4094.81  102.38   0
   2 -12 -10   71.62   41.07   0
  -2  -8 -15   45.76   32.42   0
  -2  -8 -11 1085.35   39.96   0
  -2  -7  -9  576.37   32.87   0
  -1  -9  -9 1774.56   50.50   0
  -1  -7  -6 1048.54   40.03   0
  -1  -6  -5  877.20   37.70   0
   2 -10  -6   25.54   39.87   0
   3 -12  -9  208.78   43.81   0
   3 -11  -7  114.20   45.47   0
   3  -9  -4  742.81   57.01   0
   4 -10  -5  570.01   61.56   0
  -1 -10 -11  852.09   43.71   0
  -1  -5  -4  316.31   28.32   0
  -1   4  -4 2414.91   93.39   0
   1 -12 -11  134.00   37.83   0
  -1  -8  -7  795.46   37.48   0
  -2  -8 -10   92.13   27.25   0
   0 -11 -10   36.09   30.31   0
   0 -10  -8  762.99   40.83   0
  -2  -9 -15  474.61   35.57   0
  -2  -9 -12  300.11   30.60   0
  -2  -7  -8   60.33   23.40   0
  -2  -6  -7 1416.97   42.50   0
  -1 -11 -13  415.15   36.50   0
  -1 -10 -10  185.29   34.68   0
   0  -8  -5   38.63   24.52   0
   2 -12  -9  129.37   44.51   0
   2  -3   1  129.03   50.30   0
   3 -10  -5   12.51   45.61   0
   3  -4   1 1068.23   84.10   0
   4 -12  -8  275.68   48.42   0
  -3  -4 -11  341.51   36.69   0
  -2  -5  -6 2011.70   50.80   0
  -1  -9  -8    3.56   26.89   0
   0 -12 -12    5.25   33.08   0
   0  -6  -3 1339.12   47.63   0
   0  -3  -1 1935.28   69.38   0
   2 -11  -7  541.51   47.73   0
   2  -8  -3  580.82   45.62   0
  -3  -5 -12  882.69   43.27   0
  -3  -5 -11   22.23   28.59   0
  -3  -4 -12  307.78   40.10   0
  -3  -4 -10  702.12   39.21   0
  -3  -3 -11 1266.35   53.03   0
  -3  -3 -10    0.72   31.06   0
  -2  -9 -11  279.25   30.63   0
  -2  -8  -9 1633.90   47.23   0
  -1  -4  -3 5928.36   93.57   0
   0  -9  -6 1061.61   42.93   0
   0   2   0 2443.23   95.88   0
   2  -9  -4  163.81   42.88   0
   3 -12  -8   28.47   39.59   0
   4 -11  -6   83.02   50.68   0
  -3  -5 -13   66.44   38.96   0
  -3  -4 -13  534.83   46.10   0
  -3  -3 -12   61.24   36.58   0
   0 -11  -9  923.53   43.17   0
   1 -10  -6  673.74   48.35   0
   4  -8  -2  679.21   60.45   0
   4  -7  -1    5.27   50.05   0
  -3  -6 -13  223.81   36.80   0
  -3  -6 -12  303.23   33.38   0
  -3  -6 -11 1065.33   43.88   0
  -3  -5 -10 1315.51   44.80   0
  -3  -3  -9 1782.20   55.41   0
  -3  -2 -10  974.06   49.80   0
  -2 -10 -13  181.92   27.17   0
  -2  -4  -5 1467.72   45.55   0
  -1 -11 -11  130.67   34.15   0
  -1 -10  -9  712.39   39.35   0
   0 -12 -11  477.51   35.24   0
   3 -11  -6  306.99   49.93   0
  -3  -6 -14  444.40   42.62   0
  -3  -5 -14  456.06   44.92   0
  -3  -4  -9   52.56   25.04   0
  -3  -2 -11  221.20   40.23   0
  -2  -9 -10  673.53   36.33   0
  -1  -8  -6  282.17   29.54   0
  -1  -7  -5  611.69   33.78   0
   0 -10  -7 1168.60   46.51   0
   0  -5  -2  499.52   35.49   0
   2 -10  -5  911.73   52.23   0
  -3  -7 -13  494.23   38.00   0
  -3  -7 -12   91.76   29.92   0
  -3  -2  -9 1515.53   58.08   0
  -2  -7  -7 2105.92   50.61   0
  -1  -2  -2 3655.28   90.76   0
   2 -12  -8  441.08   47.47   0
   4  -6   0  712.23   69.82   0
  -3  -7 -14   69.11   32.08   0
  -3  -6 -15    7.29   39.16   0
  -3  -5  -9 1191.71   42.57   0
  -2  -8  -8  725.82   34.68   0
  -2  -6  -6 1222.35   40.57   0
  -1  -6  -4 3012.46   63.42   0
   0 -12 -10  268.61   33.52   0
  -3  -7 -15  301.51   38.38   0
  -3  -3  -8 1287.16   47.30   0
  -2 -10 -11   49.45   28.40   0
  -1   4  -5  105.23   44.19   0
   0 -11  -8   13.43   29.51   0
  -3  -8 -14  113.87   33.60   0
  -3  -8 -13  300.67   32.41   0
  -3  -4  -8 1544.03   48.03   0
  -2 -11 -14  373.70   34.70   0
  -2  -9  -9  185.23   30.75   0
  -2  -2  -4 2168.62   65.37   0
  -1 -12 -12  480.70   39.52   0
  -1 -10  -8  642.26   40.91   0
   2 -11  -6  366.05   49.24   0
   3 -12  -7  448.12   52.06   0
  -3  -8 -15  371.43   36.06   0
  -3  -8 -12  812.79   39.52   0
  -3  -2  -8   58.85   29.73   0
  -2 -11 -13   66.15   26.76   0
   1 -13 -10    7.40   38.99   0
   2  -5   0   19.53   37.85   0
  -3  -7 -16  321.99   43.77   0
  -3  -1 -10  801.87   55.38   0
  -2 -10 -10  713.05   38.56   0
   0  -8  -4 2365.86   58.86   0
   1 -12  -8  184.22   41.32   0
   1  -9  -4 1279.82   53.86   0
   1  -8  -3 1781.89   59.92   0
   2 -13  -9   13.91   42.09   0
   3 -10  -4  625.47   58.46   0
  -3  -9 -14  484.44   38.03   0
  -3  -9 -13   18.56   29.67   0
  -3  -8 -16    5.08   34.63   0
  -3  -1  -9    3.45   33.13   0
  -2 -11 -12  299.88   31.93   0
  -2  -3  -4 1075.07   43.05   0
  -1 -12 -11  109.25   31.54   0
  -1 -11  -9   10.04   31.25   0
  -1  -5  -3 3276.58   68.04   0
   0 -13 -11   -1.61   36.21   0
   2 -12  -7    9.09   46.02   0
   5  -1   3   27.73   49.46   0
  -3  -9 -15   22.68   29.82   0
  -2  -8  -7  693.19   33.95   0
   0  -7  -3  316.14   29.53   0
   1 -10  -5    8.52   36.74   0
   1   3   1 1346.80   52.72   0
  -3  -8 -10  774.69   35.60   0
  -3  -7  -9  358.12   27.70   0
  -3  -6  -8  170.32   24.86   0
  -2 -11 -11  840.27   39.78   0
  -2  -7  -6  139.86   24.15   0
  -1  -9  -6  462.34   33.45   0
  -1  -8  -5 1366.48   45.55   0
  -1  -3  -2   28.81   19.29   0
   1  -7  -2   99.74   32.27   0
   3 -11  -5  350.58   58.56   0
  -2 -10  -9  379.20   35.67   0
  -1 -12 -10  348.45   34.43   0
  -1 -10  -7   18.20   29.68   0
   0  -4  -1  178.25   28.05   0
   1 -13  -9  376.35   44.86   0
  -3 -10 -14  237.32   32.37   0
  -3  -9 -11  513.91   31.82   0
  -3  -2  -7 1680.19   56.45   0
  -3  -1  -8 1300.52   58.65   0
  -2 -12 -13  376.45   34.18   0
  -1  -7  -4 1454.22   45.34   0
   2 -10  -4  117.40   46.32   0
   2  -9  -3 1136.09   57.63   0
  -3  -5  -7 3821.11   65.68   0
  -2  -4  -4 4289.01   74.99   0
  -1 -11  -8  825.29   40.82   0
   2 -13  -8  370.55   47.53   0
   4   0   3  665.49   58.60   0
  -3 -10 -12   42.13   26.77   0
  -3  -8  -9  121.71   25.98   0
  -3  -7  -8  997.72   38.40   0
  -2 -12 -12   76.37   33.32   0
  -2 -11 -10   19.39   31.59   0
   1 -12  -7  485.79   49.50   0
   2 -11  -5  216.52   51.41   0
   3 -12  -6   12.50   48.78   0
   4  -5   1 1571.19  112.13   0
   5  -3   2    3.12   69.23   0
  -3  -9 -10   64.13   25.85   0
  -1 -13 -11  226.87   35.94   0
  -2  -9  -7   86.71   26.67   0
  -1 -12  -9  502.64   36.79   0
  -3 -11 -13  334.31   32.50   0
  -3 -10 -11  722.65   34.33   0
  -3  -6  -7 1997.58   47.44   0
  -2 -10  -8  161.32   31.05   0
  -2  -8  -6 1433.78   42.24   0
  -1  -6  -3  411.26   30.24   0
   1   2   1   47.76   20.32   0
   2   2   2  961.37   49.02   0
  -2 -11  -9  635.55   39.92   0
  -2  -5  -4 2909.57   60.24   0
  -1  -4  -2   79.20   20.96   0
   1 -13  -8  128.74   41.06   0
   2   1   2 4730.31  117.81   0
  -3 -11 -12  297.39   29.32   0
  -3  -9  -9  719.32   36.83   0
  -3  -8  -8 1086.80   39.07   0
  -3  -1  -7  672.46   45.01   0
  -1 -10  -6 1318.87   47.07   0
  -1  -9  -5 1134.70   42.01   0
   0   3  -1  191.64   31.15   0
  -4  -7 -13   55.25   31.34   0
  -4  -6 -13  552.28   42.50   0
  -4  -6 -12  392.23   37.81   0
  -3 -10 -10  123.43   29.05   0
  -1 -13 -10    7.94   29.66   0
  -1 -11  -7  324.23   35.32   0
   0   4  -2  236.64   32.54   0
   1 -11  -5  567.07   49.07   0
   1  -9  -3    2.98   36.69   0
  -4  -8 -14  213.79   33.66   0
  -4  -8 -13  355.72   35.71   0
  -4  -7 -14  620.81   44.57   0
  -4  -7 -12 1010.13   42.08   0
  -4  -6 -14   79.52   39.32   0
  -4  -6 -11  154.79   31.65   0
  -4  -5 -12    5.20   33.51   0
  -3  -7  -7   25.73   21.40   0
  -3  -5  -6   15.69   18.87   0
  -2 -12 -10  360.93   35.22   0
  -1  -8  -4  153.28   26.00   0
   0 -12  -7  115.01   39.11   0
   2 -13  -7  375.58   49.86   0
  -4  -8 -15   13.02   35.48   0
  -4  -8 -12  117.21   29.96   0
  -4  -7 -15  189.55   43.12   0
  -4  -7 -11  174.57   30.91   0
  -4  -5 -13  732.37   49.44   0
  -4  -5 -11  791.49   44.07   0
  -3 -11 -11   45.93   26.77   0
  -3  -2  -6  428.74   34.74   0
  -1 -12  -8  129.08   32.16   0
   1 -12  -6   19.22   43.54   0
   3  -9  -2  760.12   59.84   0
  -4  -9 -15  318.01   35.23   0
  -4  -9 -14   -1.18   30.92   0
  -4  -9 -13  499.59   37.61   0
  -3   0  -9  991.14   73.77   0
  -2 -10  -7  822.65   40.80   0
   0 -13  -8  412.24   46.13   0
   0  -5  -1 4185.15   85.31   0
   1  -8  -2  683.59   45.43   0
  -4  -8 -11  987.75   42.30   0
  -4  -6 -10  779.36   39.79   0
  -4  -5 -10  171.67   27.86   0
  -4  -4 -12  600.20   46.77   0
  -4  -4 -11  873.34   48.28   0
  -3 -10  -9  730.16   37.32   0
  -3  -9  -8    7.38   26.61   0
  -3  -6  -6 1080.55   37.44   0
  -2 -13 -11    6.27   31.27   0
  -4 -10 -14  257.08   32.44   0
  -4  -9 -12  226.08   31.08   0
  -4  -7 -10  700.91   37.30   0
  -3 -11 -10  560.88   35.71   0
  -1  -7  -3 3249.86   64.54   0
  -1  -5  -2 3692.18   72.08   0
  -1   3  -4 1277.54   70.01   0
   1 -13  -7  222.08   44.42   0
   1   1   1 4210.09  127.52   0
  -4 -10 -13    5.92   30.98   0
  -4  -4 -10  159.61   32.94   0
  -2 -12  -9   63.09   29.66   0
  -2  -8  -5   63.39   20.87   0
  -2  -3  -3 1397.53   47.27   0
  -2  -2  -3 6423.35  105.37   0
   2 -11  -4 1014.85   62.27   0
   2 -10  -3  469.94   53.63   0
   2  -6   0 1435.50   68.59   0
   3  -8  -1  513.31   54.57   0
  -4  -6  -9  239.56   28.26   0
  -4  -5  -9  658.07   37.26   0
  -3 -12 -11  217.73   30.57   0
  -3   0  -8  852.59   66.72   0
   2 -12  -5  230.94   57.08   0
   2  -4   1 3519.01  117.31   0
  -3  -7  -6 2145.77   49.63   0
  -2 -13 -10  515.45   38.95   0
  -2  -4  -3  456.24   29.35   0
  -1 -10  -5   12.57   27.92   0
   0 -11  -5   91.85   39.54   0
   0 -10  -4  360.67   41.95   0
  -4  -4  -9 1367.86   47.33   0
  -3 -10  -8 1004.68   40.90   0
   0 -12  -6  654.70   46.68   0
  -4 -10 -11   84.45   26.46   0
  -4  -9 -10  805.24   35.92   0
  -4  -3 -11   43.14   34.90   0
  -3 -11  -9    9.24   30.26   0
  -3  -9  -7 1420.08   43.71   0
  -3  -4  -5  852.03   34.78   0
  -3  -1  -6  230.59   33.66   0
  -2  -7  -4  966.89   37.53   0
  -1  -9  -4  856.61   39.20   0
   2 -13  -6   33.28   51.91   0
   3  -5   1  217.97   57.38   0
  -4  -8  -9  393.93   28.97   0
  -4  -3 -10 1210.90   51.02   0
  -3 -12 -10  246.24   33.60   0
  -2 -12  -8  511.23   36.28   0
  -2 -10  -6   -1.51   28.39   0
  -2  -1  -3   30.72   23.53   0
   0 -13  -7  338.38   45.34   0
   0  -9  -3  796.33   41.97   0
  -4 -11 -12  346.86   32.71   0
  -4  -5  -8 2166.49   51.44   0
  -2  -9  -5  540.40   33.39   0
  -2  -5  -3 2354.68   55.09   0
   1 -11  -4   82.09   44.49   0
  -3 -13 -11  708.14   41.69   0
  -3  -8  -6   81.58   22.98   0
  -3  -6  -5  475.92   28.81   0
  -2 -13  -9   76.30   28.61   0
   0 -14  -8    3.37   39.24   0
   1 -10  -3  852.52   52.45   0
   1  -2   1   78.18   43.61   0
  -4 -11 -11  660.68   33.41   0
  -4 -10 -10  830.66   35.32   0
  -4  -9  -9   17.43   23.95   0
  -4  -7  -8   88.43   21.00   0
  -4  -4  -8   34.52   24.96   0
  -4  -3  -9  354.67   36.37   0
  -1  -8  -3 1230.22   43.30   0
   1 -13  -6  509.75   49.07   0
   1   3   0   27.92   20.05   0
  -3 -11  -8  828.29   41.84   0
   0  -8  -2 1125.45   47.09   0
   3  -7   0    4.69   45.26   0
  -4 -12 -12   40.22   26.06   0
  -4  -8  -8  707.08   33.35   0
  -3 -12  -9  450.54   37.46   0
  -3 -10  -7   52.14   27.87   0
  -2  -8  -4 1253.75   42.23   0
   1 -14  -7   52.21   43.96   0
   1  -9  -2 1304.82   56.14   0
  -3 -13 -10   -0.66   31.54   0
  -3  -7  -5  459.93   29.05   0
  -3   0  -7  112.07   44.46   0
  -2  -6  -3 3763.12   66.41   0
  -1  -2  -1   45.32   20.75   0
  -4 -11 -10   28.48   25.49   0
  -4 -10  -9  552.80   34.32   0
  -4  -6  -7  772.32   34.22   0
  -4  -3  -8 1352.64   49.64   0
  -2 -12  -7   35.79   28.55   0
  -2 -11  -6  855.27   41.28   0
  -1  -3  -1 1272.18   49.85   0
   0 -12  -5  117.28   42.83   0
  -5  -9 -14  505.86   36.98   0
  -5  -9 -13  205.63   32.10   0
  -5  -8 -14  188.26   40.49   0
  -5  -8 -13  205.81   32.38   0
  -4  -9  -8 1175.35   40.58   0
  -2 -13  -8  284.07   36.86   0
  -1 -14  -8  455.24   46.60   0
   0 -13  -6   30.71   43.59   0
   0 -11  -4  919.96   51.41   0
   2 -12  -4  210.45   56.25   0
  -5 -10 -14   18.39   30.92   0
  -5  -9 -15    7.45   34.37   0
  -5  -8 -12  640.35   39.38   0
  -5  -7 -13  858.88   49.20   0
  -5  -7 -12   73.05   34.08   0
  -4  -4  -7 2110.64   53.04   0
  -1  -7  -2    7.78   21.57   0
   0 -14  -7  413.98   47.55   0
  -5 -10 -13  529.65   37.37   0
  -3 -12  -8   25.80   29.23   0
  -3  -8  -5 1705.93   44.77   0
   0 -10  -3  942.21   52.22   0
  -5 -10 -12    9.08   31.02   0
  -5  -8 -11   -3.10   28.05   0
  -5  -7 -11  408.98   34.05   0
  -5  -6 -12  307.84   41.69   0
  -4 -12 -10  413.08   32.32   0
  -4 -11  -9  584.35   35.05   0
  -3 -13  -9  456.97   37.10   0
  -3 -11  -7  622.07   37.96   0
  -3  -5  -4  313.29   24.93   0
  -3  -4  -4   95.65   19.30   0
  -2  -9  -4  320.74   29.96   0
  -2  -7  -3   31.79   20.50   0
   0  -4   0 3472.02   83.54   0
   0   2  -1 2175.75   84.15   0
  -5 -11 -13  289.27   33.12   0
  -5  -6 -13  280.69   42.05   0
  -4 -10  -8  288.30   30.95   0
  -4  -2  -9  293.83   39.05   0
  -3 -10  -6 1046.09   42.21   0
  -1  -1  -1 5038.80  123.94   0
   1 -12  -4  316.64   52.89   0
   2  -7   0 1727.67   71.98   0
  -5  -6 -11  652.10   41.34   0
  -3  -6  -4 2866.33   55.73   0
   1 -13  -5   13.11   49.61   0
  -5  -8 -10  751.35   36.89   0
  -5  -7 -10  495.04   34.31   0
  -4  -9  -7  474.85   32.91   0
  -4  -3  -7 1177.50   45.12   0
  -1 -13  -6  462.74   48.00   0
  -1 -12  -5  493.65   45.51   0
   0  -9  -2   90.68   34.32   0
   1 -14  -6  125.28   52.66   0
   1 -11  -3 1041.93   62.14   0
  -5  -6 -10    5.93   27.48   0
  -4  -6  -6  592.00   29.03   0
  -3  -9  -5  225.00   27.24   0
  -3  -1  -5 2004.10   67.33   0
  -2 -11  -5  340.68   34.77   0
  -2  -4  -2 3970.04   71.65   0
  -1 -14  -7  160.22   42.29   0
  -1  -5  -1  537.71   32.45   0
   5  -2   2  962.72   67.12   0
  -5  -5 -12  769.25   47.91   0
  -5  -5 -11   48.85   33.98   0
  -4 -13 -10  450.78   37.89   0
  -4 -12  -9  199.80   32.57   0
  -4 -11  -8   30.63   29.38   0
  -4  -7  -6  345.26   25.99   0
  -2  -3  -2 3787.88   73.97   0
  -1 -11  -4    6.66   36.71   0
   2  -5   1 1626.33   76.53   0
  -5  -7  -9  153.16   29.52   0
  -4  -2  -8 1974.71   63.59   0
  -3 -13  -8  311.52   32.25   0
  -3 -12  -7  995.32   42.30   0
  -2  -8  -3 1008.52   38.97   0
  -2  -5  -2  883.03   36.57   0
   0 -13  -5  466.36   48.83   0
   1 -10  -2  271.81   48.54   0
   2  -9  -1  930.80   57.88   0
  -5  -6  -9  769.92   39.51   0
  -5  -5 -10  377.46   36.65   0
  -4 -10  -7 1435.92   44.42   0
  -4  -8  -6 2172.94   48.78   0
  -3 -11  -6  361.22   33.67   0
  -2 -10  -4  151.94   30.30   0
   0 -14  -6  180.28   45.06   0
   0 -12  -4  331.95   47.44   0
  -1 -10  -3  552.53   42.55   0
  -5 -12 -11  214.07   30.17   0
  -5 -11 -10  669.11   33.81   0
  -3 -10  -5  176.16   29.53   0
  -3  -8  -4  287.37   26.90   0
  -2  -6  -2  900.79   36.38   0
  -2  -2  -2  954.82   42.78   0
  -1   3  -6 1933.34   77.51   0
   0 -11  -3   33.09   39.98   0
  -5 -10  -9  276.74   27.53   0
  -5  -5  -9  328.80   31.33   0
  -4 -13  -9  120.15   33.10   0
  -4 -12  -8  737.05   40.74   0
  -4  -9  -6  624.48   34.84   0
   0  -8  -1  857.66   46.62   0
   1   2   0 5790.57  110.74   0
  -4 -11  -7  410.16   36.76   0
  -4  -3  -6  590.12   34.42   0
  -2 -14  -7  324.79   40.61   0
   4  -1   2  227.42   41.57   0
  -5 -12 -10  122.56   25.09   0
  -5  -6  -8  547.09   33.40   0
  -5  -4 -11  336.89   42.29   0
  -3 -14  -8  332.32   38.98   0
  -3 -13  -7  177.94   31.75   0
  -2  -9  -3 2098.98   52.50   0
  -1 -14  -6  275.87   46.97   0
  -1 -13  -5  -11.33   42.94   0
  -5 -11  -9   55.03   24.45   0
  -5  -9  -8   51.64   23.91   0
  -5  -4 -10  800.39   45.77   0
  -4  -7  -5 1122.63   37.48   0
  -4  -5  -5  140.94   19.67   0
  -4  -2  -7   18.51   25.84   0
  -3 -12  -6   38.46   29.47   0
  -3  -9  -4 1326.83   42.42   0
  -3  -5  -3  609.01   30.48   0
   0 -10  -2 1292.31   57.81   0
   1 -13  -4  534.61   59.53   0
   1   3  -1 4072.51   82.19   0
  -4 -10  -6   21.69   28.64   0
  -3  -6  -3  111.51   20.31   0
  -3  -4  -3 3136.07   60.83   0
  -2  -7  -2 2502.77   55.14   0
  -1 -12  -4  283.68   40.87   0
  -6 -10 -13   14.60   28.16   0
  -6  -9 -14   -0.62   35.63   0
  -6  -9 -13  358.07   35.24   0
  -5 -10  -8  667.18   34.16   0
  -5  -5  -8  301.73   30.13   0
  -4 -13  -8  403.16   35.40   0
  -4  -8  -5   13.87   20.92   0
   1 -12  -3   95.00   51.17   0
  -6 -10 -12  405.97   35.11   0
  -6  -9 -12  182.63   31.71   0
  -6  -8 -13  331.18   41.89   0
  -4 -12  -7   11.34   29.78   0
  -1 -11  -3  770.19   47.87   0
  -6 -11 -12   97.94   29.79   0
  -6  -8 -12   48.84   32.50   0
  -5 -12  -9  423.89   32.06   0
  -5  -8  -7  595.39   31.53   0
  -3  -3  -3 3159.31   64.04   0
   0 -14  -5  216.81   51.10   0
  -5 -11  -8  441.04   32.45   0
  -5  -9  -7  965.74   36.75   0
   0   4  -1 1513.44   74.94   0
   1  -2   9  141.52   28.57   0
   3   3   3 2985.24   57.69   0
   3  10   3  800.84   67.46   0
   5   6   7  628.92   29.49   0
   5  11   7  124.59   36.24   0
   6  10  11   33.99   27.17   0
   6  11  11  356.36   33.11   0
   0  -3   5 1772.66   56.14   0
   1  -1  13   -0.73   31.84   0
   2  -1   8 1637.82   42.71   0
   2  -1   9   50.71   25.25   0
   2   0  13  112.56   28.97   0
   4   3   6  555.29   24.77   0
   5   5   8  294.93   25.36   0
   5   5  13   61.87   23.17   0
  -3  -4   2 4465.93  117.85   0
  -2  -1  -1 1614.29   54.08   0
   3   1   5 1985.91   43.06   0
   3   6   2  825.45   45.56   0
   4   2   9  302.70   25.95   0
   4   9   4  175.06   35.87   0
   5   8   6   17.00   23.09   0
   6   8  11  580.82   31.70   0
   6   8  12   35.36   20.57   0
   6   8  13  319.03   26.62   0
   6   9  10  538.40   32.53   0
   6  10  10  278.67   32.19   0
   6  11  10   -7.68   29.70   0
   1  -2  10 1031.56   44.82   0
   2  -1  10  695.89   35.79   0
   3   7   2    3.10   29.29   0
   4   2   8 1972.77   41.54   0
   4   3  14   76.51   26.07   0
   4   5   4 1554.01   41.91   0
   5   9   6  443.31   34.25   0
   2   3   1 1747.93   62.63   0
   5   4  10  821.27   32.62   0
   5   4  11  336.20   26.99   0
   5   5   7 1246.25   35.89   0
   6  12  10  222.35   38.90   0
   6  13  11    5.43   36.82   0
  -1  -4   6  906.02   52.84   0
  -1  -4   7  977.77   52.91   0
   2   0  14  175.53   37.12   0
   4   2   7   15.51   17.30   0
   5   4   9  164.75   24.88   0
   5   4  12  283.58   26.40   0
   5  10   6  900.93   47.98   0
   6   7  11  389.43   25.87   0
   6   7  12  573.36   29.82   0
   6   9   9   61.62   26.13   0
   6  10   9  439.72   35.13   0
  -1  -4   8  171.34   38.90   0
   1  -2  11   79.84   33.48   0
   2   1   2 4692.56   80.26   0
   3   0  10   99.71   26.54   0
   4   3   5 3161.45   53.38   0
   5   4   8 1659.29   39.62   0
   5   4  13  710.32   30.31   0
   6   7  10  198.25   23.22   0
   6  11   9  619.09   40.52   0
   2  -1   5 2288.21   49.04   0
   2   0   3 1565.98   44.14   0
   3   0   7  100.52   19.45   0
   3   1  14   14.90   27.49   0
   0  -3   4 1113.52   49.63   0
   3   0  11 1007.56   39.53   0
   3   2   3 1381.55   40.98   0
   3   4   2  435.85   32.22   0
   4   2   6 1739.12   40.05   0
   4   2  13  666.31   33.56   0
   4  10   4  514.60   50.83   0
   6   7   9  727.11   31.97   0
  -2  -2   0 1756.10   67.65   0
  -1  -4   5  581.32   50.11   0
   2  -1  12   82.59   30.94   0
   3   0   6 1928.80   43.16   0
   3   1   4   71.80   17.43   0
   5   4   7  285.35   22.50   0
   5   5   6  100.96   19.62   0
   6   6  11   98.75   24.26   0
   6   6  12  517.28   29.65   0
   6   6  13  227.09   26.86   0
   6   9   8  823.71   37.97   0
   6  12   9   12.66   36.89   0
   1  -2  12  381.25   43.29   0
   4   2  14   25.18   27.80   0
   5   3  10   98.60   22.95   0
   5  11   6  184.42   40.46   0
   6   8   8  346.98   31.42   0
   6  10   8   86.48   29.81   0
   3   0  12   24.30   27.75   0
   4   1   9  850.47   32.34   0
   5   3   9  774.39   31.96   0
   5   3  11  727.59   30.14   0
   5   3  12  101.83   23.72   0
   5   8   5  977.35   40.65   0
   4   1   8  322.80   24.73   0
   6   6   9   41.03   21.36   0
   6  11   8  225.31   38.01   0
   1  -1   2 5672.67   97.78   0
   2  -1  13  440.37   40.90   0
   4   6   3 2824.47   64.16   0
   4   7   3  519.08   37.66   0
   5   3   8  625.20   29.15   0
   5   9   5  350.42   37.52   0
   6   5  11  670.69   32.52   0
   2  -1   4  489.36   26.79   0
   3   0   5  335.29   22.62   0
   3   0  13  521.38   36.18   0
   4   1   7  312.64   23.30   0
   4   2   5 1001.85   32.16   0
   4   3   4   16.39   16.58   0
   5   4   6 1079.61   34.11   0
   6   5  10  164.20   26.35   0
   6   5  12    3.08   21.96   0
  -1   1  -1  162.49   24.92   0
   1   0   1 4044.29   97.23   0
   2  -2   8  802.68   37.06   0
   3   3   2 4577.73   77.04   0
   6   8   7  328.89   31.28   0
   6   9   7  221.44   30.19   0
   7  10  11  323.29   30.98   0
  -2   0  -1  557.39   32.24   0
   2  -2   7  299.71   29.16   0
   2  -2   9 1052.57   41.93   0
   4   1  13  137.04   30.88   0
   4   8   3  325.73   41.25   0
   5   5   5 1688.78   41.25   0
   6   5   9  515.13   28.84   0
   7   9  11  303.84   29.85   0
   7  11  11   17.15   27.54   0
   2  -2  10    7.07   30.25   0
   2   2   1 5073.02   96.59   0
   3  -1   9  865.46   37.90   0
   3   0  14  236.74   36.69   0
   4   1   6  561.02   26.91   0
   5  10   5  147.02   38.76   0
  -3  -3   1 3812.93   89.83   0
   3  -1  10  255.71   31.58   0
   5   2   9  958.04   35.19   0
   5   2  10  344.24   25.85   0
   5   2  11  180.36   24.58   0
   6   5   8  655.53   31.36   0
   7   9  10   21.78   28.02   0
   7  10  10  202.88   31.08   0
   3   1   3 5115.52   73.16   0
   4   4   3  230.66   22.48   0
   6   4  10   90.64   26.55   0
   6   4  12  507.47   31.54   0
   6   6   7  748.40   31.86   0
   7  11  10  399.58   35.16   0
   1  -2   3 2530.61   62.57   0
   2  -2  11  630.25   43.07   0
   5   2   8   21.53   21.29   0
   5   3   6 1366.77   36.99   0
   5   4   5 1698.87   41.16   0
   6  11   7  475.57   47.14   0
   7   7  11  399.77   27.48   0
  -1  -1   0 3285.51  127.51   0
   3   0   4  964.57   33.30   0
   4   0  10  629.72   34.00   0
   4   2   4 1539.09   39.50   0
   5   2  13   20.00   26.20   0
   6   4   9  922.96   35.29   0
   7  12  10  116.81   39.53   0
  -1   2  -1   49.07   22.70   0
   3  -1   6  409.69   25.15   0
   3  -1  12  462.02   35.58   0
   4   0   8  291.55   24.99   0
   4   0  11   28.12   28.25   0
   4   1   5  270.20   22.42   0
   5   2   7 1963.81   43.08   0
   5   7   4  379.33   32.20   0
   6   5   7   -4.25   20.86   0
   6   8   6  555.28   35.40   0
   7   9   9  585.12   34.91   0
   7  10   9  116.28   30.71   0
   0  -4   8  513.75   43.16   0
   2  -2  12   65.37   35.57   0
   2   0   2  598.44   30.65   0
   3   2   2 3952.56   69.80   0
   5   6   4 2280.46   53.59   0
   6   4   8   27.69   21.94   0
   6   7   6  265.90   29.19   0
   6   9   6  324.72   35.55   0
   7   8   9  255.02   29.61   0
   0  -4   7  311.28   36.13   0
   2  -1   3 2378.22   53.36   0
   4   0   7 1871.03   42.16   0
   4   0  12  761.16   40.24   0
   4   3   3 2250.49   49.53   0
   5   8   4   63.24   28.47   0
   7   6  11  691.79   32.82   0
   7  11   9   74.11   35.70   0
   3  -1  13   20.04   37.10   0
   5   3   5   15.67   17.41   0
   6   3  10  468.46   30.48   0
   6   3  11   29.03   21.38   0
   6   3  12  560.87   29.88   0
   7   6  10    9.84   21.21   0
  -3  -4   3   81.38   36.56   0
   0  -4   6  267.14   36.02   0
   3  -1   5 2144.50   46.22   0
   4   0  13   37.06   30.45   0
   5   1   9   83.63   22.51   0
   5   2   6  148.11   21.12   0
   6   3   9  231.91   27.35   0
   6   4   7  999.72   35.25   0
   6  10   6   18.00   36.02   0
   4   0   6   76.05   18.66   0
   5   1   8 1615.61   42.13   0
   5   1  12  320.83   32.85   0
   6   5   6  856.10   33.26   0
   7   8   8  363.72   31.18   0
   7   9   8    4.81   28.89   0
   7  10   8  445.30   38.73   0
   5   4   4  275.36   24.07   0
   6   3   8  473.32   29.91   0
   7   5  11   79.41   26.48   0
   4   1   4 2418.10   47.23   0
   7   5  10  420.01   28.48   0
   2  -2   4 2482.10   54.56   0
   2   1   1 1700.64   54.93   0
   3  -2   8  383.88   32.73   0
   3  -2   9  198.78   30.08   0
   3   0   3 1101.66   36.39   0
   7  11   8  420.41   43.80   0
   2  -3   8   35.66   28.90   0
   3  -2  10 1060.89   45.03   0
   4  -1   9   62.90   28.04   0
   4   2   3 3036.46   55.90   0
   6   4   6  929.76   35.12   0
   6   7   5  557.01   35.22   0
   6   8   5  124.76   31.55   0
   6  11   6  681.83   52.55   0
   7   5   9  490.66   29.29   0
   7   6   8  126.40   23.30   0
   0  -4   5 2180.60   66.56   0
   2  -3   9  679.66   41.55   0
   3  -2   7 1466.48   42.52   0
   3  -2  11   -0.08   34.06   0
   4  -1  10  559.60   34.10   0
   4   0   5 1864.81   42.56   0
   5   2   5 1480.42   37.62   0
   6   2  10  366.84   26.67   0
   6   2  11  271.70   26.37   0
   6   3   7 1345.25   37.65   0
   7   4  11  110.01   27.80   0
   2  -3   7  714.84   36.59   0
   2  -3  10  460.79   43.84   0
   3  -1   4 1594.76   41.19   0
   3   1   2  805.13   33.60   0
   3   5   1   45.94   28.08   0
   4  -1  11  367.73   33.86   0
   5   3   4 2154.80   46.47   0
   6   2   9   97.18   23.86   0
   7   4  10  490.69   31.12   0
   7   7   7   80.42   28.78   0
   7   9   7  274.62   35.15   0
  -2  -1   0  855.82   43.61   0
   4  -1  12  271.37   33.27   0
   5   1   6  338.93   24.69   0
   5  10   4  522.71   55.12   0
   6   5   5  100.51   20.51   0
   6   9   5  719.42   47.16   0
   7   5   8  204.59   24.17   0
   2  -3   6  377.78   30.54   0
   3  -2  12  343.72   42.39   0
   5   0  11  458.49   34.74   0
   6   2   8 1002.43   35.84   0
   7   4   9   10.05   24.53   0
   7  10   7    6.37   35.60   0
   8   8  10   39.01   26.31   0
   4   7   2 1530.24   62.64   0
   5   0   8 1236.78   37.71   0
   5   0  12  -12.18   28.34   0
   5   6   3  189.29   27.91   0
   6   3   6   24.60   22.78   0
   1  -4   8    6.25   31.55   0
   1  -4   9 1040.53   52.59   0
   4  -1   6 1044.24   34.43   0
   6   2   7   55.07   23.17   0
   8   9   9   16.54   30.13   0
   0   6   0 1796.51   72.70   0
   4   0   4 1633.59   40.18   0
   4   3   2  968.84   36.66   0
   5   0   7   47.69   21.59   0
   6  10   5  652.33   50.47   0
   7   4   8  848.89   34.27   0
   7   5   7  748.04   31.73   0
   7  11   7  435.43   49.22   0
   8   8   9  210.70   31.12   0
   8  10   9  186.25   34.25   0
   4   1   3 1095.68   34.24   0
   5   2   4 2203.04   46.28   0
   5   4   3 1417.39   41.03   0
   6   1  10    3.91   24.92   0
   7   3  10  117.47   25.57   0
   7   7   6  624.06   37.23   0
   7   8   6    0.29   29.55   0
   2  -3   5 1773.29   49.16   0
   2  -2   3  675.11   31.84   0
   6   1   9  922.37   34.17   0
   7   3   9  432.02   30.64   0
   8  11   9  167.57   39.38   0
  -3  -3   2 1051.68   52.83   0
   1  -1   1  163.85   25.22   0
   6   1   8  266.37   28.35   0
   6   2   6  482.92   29.53   0
   6   6   4   20.35   23.53   0
   6   7   4  927.06   43.33   0
   7   4   7  224.27   26.55   0
   7   9   6  425.41   40.13   0
   0  -4   4  108.20   30.29   0
   3  -1   3   66.59   18.06   0
   4  -1   5 1021.25   33.45   0
   6   3   5  884.72   33.30   0
   8   6   9   43.76   25.52   0
   8   8   8  402.24   35.67   0
   8   9   8  357.00   35.10   0
   3   0   2  935.11   35.11   0
   4  -2   8  450.82   33.46   0
   4  -2   9  781.95   39.91   0
   4  -2  10   21.90   29.98   0
   5   3   3  486.01   26.70   0
   6   8   4  546.25   42.96   0
   7   5   6   17.09   21.70   0
   8   7   8    0.76   27.46   0
   8  10   8   29.28   34.69   0
   2   0   1  570.40   32.45   0
   3  -3   8 1363.89   47.76   0
   3  -3   9  181.42   36.23   0
   3   2   1   17.18   16.84   0
   4  -2  11  389.03   35.90   0
   4   2   2   52.76   17.88   0
   5  -1   9  972.14   40.59   0
   5  -1  10   69.55   30.80   0
   6   1   7  729.08   33.38   0
   1   8   1  697.11   69.89   0
   3  -3  10  232.16   40.01   0
   4  -2   7  342.12   30.92   0
   5  -1  11  383.74   34.99   0
   5   1   4    1.46   17.43   0
   6   4   4 1705.05   42.18   0
   7   2  10  122.42   25.75   0
   8   5   9  197.74   25.84   0
  -2   0   0  103.60   19.35   0
   3  -3   7   23.78   27.84   0
   3  -2   4   64.51   17.49   0
   4  -2  12   47.70   37.02   0
   5   0   5   51.93   20.05   0
   7   2   9  357.41   28.58   0
   7   3   7  142.97   25.83   0
   7   4   6  304.15   26.26   0
  -2  -2   1 4073.69  107.82   0
   3  -3  11  256.96   42.45   0
   4   0   3  686.43   29.27   0
   6   0  11   99.65   30.37   0
   6   2   5  482.18   28.31   0
   4  -1   4  318.71   23.49   0
   5   2   3    9.43   18.04   0
   5   9   3  -10.63   43.98   0
   6   1   6 1015.10   35.96   0
   6   9   4   13.44   39.20   0
   7   6   5   60.70   28.79   0
   7   7   5  297.63   33.17   0
   8   5   8  523.45   29.45   0
   8   7   7  617.24   37.35   0
   8   8   7   42.21   33.34   0
   3  -3   6  811.71   36.79   0
   6   0   8  260.38   25.56   0
   6   3   4  321.72   25.12   0
   7   8   5  710.72   43.64   0
   8   4   9  432.65   31.17   0
   8   9   7  133.12   33.45   0
  -1  -5   6   19.57   45.71   0
   4   1   2 2121.85   47.74   0
   7   3   6 1165.56   37.91   0
   0   5   0   34.01   28.32   0
   3   1   1 2546.68   57.69   0
   5  -1   6  765.04   32.60   0
   7   2   7  567.10   33.76   0
   7   9   5  109.16   39.62   0
   8   4   8    7.84   24.99   0
   8  10   7  350.01   46.71   0
   5   5   2 1874.03   53.06   0
   7   1  10  516.04   33.73   0
   7   4   5  611.25   31.12   0
   8   5   7   42.88   25.60   0
   0  -5   7  202.76   41.56   0
   2  -4   6 1159.08   44.51   0
   3  -3   5  132.61   24.75   0
   5   6   2 1587.95   54.66   0
   6   1   5  134.83   23.35   0
   6   2   4  478.24   27.88   0
   6   6   3  953.94   43.56   0
   7   1   9   10.47   21.33   0
   8   3   9  123.38   27.34   0
  -1  -4   3  338.79   63.51   0
   2  -2   2 1301.48   42.03   0
   3  -2   3 2396.88   50.57   0
   3  -1   2 2714.71   54.64   0
   5   1   3 2055.40   44.22   0
   7   1   8  331.43   27.91   0
   4  -3   9  433.95   37.32   0
   5  -2   9  119.46   30.42   0
   5  -1   5  170.06   23.31   0
   5   3   2  227.47   22.80   0
   6   0   6  110.14   24.76   0
   6   7   3   64.15   30.51   0
   7   2   6  185.29   29.03   0
   8   4   7  497.16   28.83   0
   8   6   6  111.49   29.30   0
   8   7   6  267.37   32.92   0
   8   8   6  850.68   44.41   0
   4  -3   8   67.97   30.26   0
   4  -3  10  234.98   38.37   0
   4  -1   3 2695.02   51.13   0
   5  -2   8  357.75   32.05   0
   5  -2  11    9.70   29.71   0
   6  -1   9    1.31   28.23   0
   6  -1  10  412.06   34.04   0
   7   3   5  136.44   25.03   0
   7  10   5  167.66   46.29   0
   8   3   8  245.47   29.95   0
   4  -3   7 1207.99   42.99   0
   4  -3  11   47.88   37.51   0
   4   3   1  342.01   28.70   0
   5  -2   7  454.73   32.64   0
   5   7   2   91.88   36.26   0
   7   1   7  338.99   30.12   0
   7   6   4  835.91   41.72   0
   9   8   8   93.79   29.06   0
   2  -4   5 1240.79   43.96   0
   2  -1   1 3571.30   70.21   0
   4   0   2 4403.23   64.95   0
   6   3   3 1395.72   39.80   0
   7   7   4  312.53   35.74   0
   3  -4   8  144.72   36.36   0
   3  -4   9  505.10   44.43   0
   5   2   2 1739.55   43.80   0
   6   0   5  915.87   34.96   0
   6   1   4 1156.16   36.41   0
   6   8   3  258.94   41.26   0
   3  -4   7  602.44   39.72   0
   3   0   1 5009.70   75.85   0
   4  -3   6   66.04   27.80   0
   4   2   1 1891.79   48.80   0
   5   0   3 1240.17   37.02   0
   6  -1   7  107.08   25.75   0
   7   2   5  447.62   30.45   0
   7   4   4  172.49   25.02   0
   7   8   4   96.81   40.27   0
   8   4   6  460.12   28.97   0
   8  10   6   50.38   46.08   0
  -1   3   0 2598.81   70.95   0
   1  -5   7  555.00   45.09   0
   7   0   8  454.74   28.80   0
   7   1   6  164.76   26.71   0
  -3  -3   3 1131.40   57.02   0
   4   9   2   43.60   63.02   0
   6   2   3 1905.60   44.18   0
   7   3   4  999.74   36.74   0
   8   6   5  573.63   37.22   0
   8   7   5  225.98   35.72   0
   9   7   7   58.72   30.54   0
   9   8   7  342.18   36.72   0
  -1   1   0 3197.21   89.57   0
   3  -4   6  498.19   35.28   0
   7   0   7    3.58   23.65   0
   8   3   6    9.90   23.63   0
   9   9   7  308.23   41.50   0
  -1   2   0 2432.47   72.17   0
   1  -5   6  135.41   32.43   0
   1  -2   1   52.29   19.13   0
   2  -4   4   41.44   23.45   0
   2   1   0  910.83   43.56   0
   5  -2   5  513.19   29.29   0
   5   1   2  705.75   30.72   0
   7   9   4  791.69   55.31   0
   8   2   7   38.09   26.25   0
   8   8   5   -1.47   36.38   0
   0  -5   5  306.18   40.91   0
   3  -2   2 1549.39   41.88   0
   4   1   1 1805.80   46.52   0
   5  -3   9  139.94   32.52   0
   6  -2   9  296.62   33.18   0
   6   0   4  140.80   24.00   0
   7   1   5 1324.39   42.34   0
   4  -2   3 1355.95   38.22   0
   4  -1   2  246.08   22.94   0
   5  -3  10  155.18   34.96   0
   6  -2   8  390.24   34.97   0
   6   1   3   30.52   20.31   0
   6   9   3  769.56   59.19   0
   7   2   4  581.84   31.75   0
   8   1   8  125.08   26.59   0
   8   4   5   95.93   25.97   0
  -3  -4   5  628.39   54.58   0
  -2  -1   1 5800.69  110.78   0
   3  -4   5  379.07   30.99   0
   6   5   2   78.68   26.19   0
   7   0   6  568.91   31.99   0
   8   9   5  337.77   49.87   0
   4  -4   8  477.19   41.35   0
   4  -4   9   24.06   36.19   0
   5  -3   7    4.01   26.80   0
   6   3   2 1114.37   38.28   0
   6   6   2  315.91   34.94   0
   7   5   3  308.55   32.85   0
   7   6   3  305.97   35.13   0
   8   3   5  695.89   33.14   0
   9   4   7  182.69   26.58   0
   2  -3   2 2242.50   54.27   0
   3  -1   1   23.17   15.51   0
   5  -2   4  317.26   26.68   0
   5   0   2  242.09   22.86   0
   8   1   7  114.31   28.10   0
   9   6   6  472.21   35.75   0
   9   8   6   -7.00   31.35   0
   1  -5   5 2109.10   64.24   0
   4  -4   7  395.76   38.08   0
   5   3   1 1107.85   39.68   0
   7   7   3  637.89   45.68   0
   2  -2   1 4518.38   75.74   0
   4   0   1  261.47   24.32   0
   4   7   1   48.93   41.69   0
   5   5   1   10.02   25.97   0
   6   2   2   27.98   19.48   0
   7  -1   7  382.27   30.79   0
   7   0   5  260.50   28.78   0
   7   1   4    0.34   23.74   0
   7   3   3  591.33   31.54   0
   8   5   4  312.09   34.28   0
   8   6   4   35.56   30.44   0
   9   9   6  201.70   47.64   0
   1   7   1 3521.17  111.85   0
   4  -4   6  279.31   31.63   0
   5   2   1  120.04   20.35   0
   6  -1   4   37.26   23.09   0
   6   0   3  996.20   35.08   0
   8   2   5  369.90   29.03   0
   8   7   4  438.31   39.83   0
   9   4   6  144.83   30.38   0
   2  -4   3 1263.86   44.17   0
   2   0   0   97.40   19.21   0
   3  -4   4 1386.28   43.14   0
   3   1   0 4993.31   80.53   0
   7  -1   6  220.27   25.88   0
   7   2   3  105.70   25.25   0
   7   8   3  458.29   49.14   0
   8   8   4  618.26   49.24   0
   0   3   0 3642.62  115.51   0
   4  -2   2  786.45   31.32   0
   6  -3   9  370.31   35.45   0
   6  -2   5   -2.37   21.78   0
   6   1   2  847.31   33.05   0
   8   0   7  525.97   32.04   0
   8   3   4  171.64   25.34   0
   9   3   6  364.77   30.92   0
   9   6   5    4.00   32.45   0
  -2   0   1 2335.33   65.23   0
   3  -5   7  753.95   45.70   0
   4  -4   5 1042.71   41.68   0
   4  -3   3  166.10   21.84   0
   5  -1   2 1420.50   39.11   0
   5   1   1  355.88   26.10   0
   6  -3   8   -4.40   30.69   0
   7   0   4  591.52   34.33   0
   9   5   5  457.74   35.92   0
  -2  -4   4   30.74   44.54   0
   0  -5   4 2708.13   83.19   0
   3  -3   2  358.59   24.32   0
   5  -4   8  137.41   33.19   0
   5  -4   9  372.68   43.88   0
   7  -1   5  260.56   27.43   0
   7   1   3 1100.76   38.70   0
   8   1   5   15.97   26.29   0
   9   8   5  332.25   42.35   0
   1  -5   4  347.08   35.85   0
   2   9   2   98.43   58.45   0
   3  -5   6   -2.03   34.92   0
   3  -2   1 1612.92   42.89   0
   4  -1   1 2141.30   46.24   0
   6  -1   3 1494.54   41.73   0
   8   0   6   44.45   26.70   0
   8   2   4  135.67   26.55   0
   3   0   0  250.82   22.39   0
   4   2   0 1473.34   44.77   0
   5  -4   7  342.62   35.79   0
   6   8   2  348.88   47.51   0
   7   5   2 1188.89   47.55   0
   8   9   4   33.34   47.71   0
   0   6   1  518.06   43.92   0
   4  -4   4   12.13   25.54   0
   5   0   1 2029.43   46.65   0
   6  -3   6   66.22   28.20   0
   6   0   2  752.87   31.52   0
   8   5   3  569.39   38.37   0
   9   3   5    7.00   22.69   0
   4   4   0  162.91   29.12   0
   5  -4   6  645.73   38.25   0
   6   4   1  579.87   35.28   0
   7   6   2  415.88   38.82   0
   7   9   3   -0.34   48.31   0
   8   6   3  525.38   39.54   0
   2  -1   0 1630.31   48.57   0
   3  -5   5 1108.23   46.07   0
   4   1   0  563.95   29.36   0
   7  -1   4  668.62   33.60   0
   7   2   2 1374.08   41.00   0
   8   0   5  321.88   29.82   0
   8   1   4  899.69   36.81   0
   1  -1   0 3398.49   86.54   0
   4  -5   7   13.50   36.27   0
   5  -2   2 1012.15   34.48   0
   6   2   1 1614.19   43.47   0
   8   7   3   31.70   39.40   0
   9   5   4  335.40   36.46   0
   9   6   4  365.11   39.49   0
   2  -3   1  131.29   20.91   0
   4  -3   2 1962.59   44.89   0
   5  -4   5   35.33   28.45   0
   5  -3   3 1340.96   39.86   0
   7  -2   5  905.51   34.90   0
   8  -1   6  154.96   26.57   0
   9   2   5  208.50   28.26   0
   9   7   4   28.53   35.74   0
   4  -5   6 1313.77   50.82   0
   4  -2   1 1028.01   34.03   0
   6  -2   3  340.08   28.37   0
   6  -1   2   56.31   23.25   0
   6   1   1  979.33   35.29   0
   7   7   2   27.90   41.07   0
   8   2   3  396.87   28.98   0
   0  -4   2  270.45   38.23   0
   0   2   0 2194.87  108.61   0
   3  -1   0 3424.49   61.24   0
   4   0   0 4561.47   68.34   0
   5  -1   1  397.01   25.50   0
   6  -4   8  321.43   38.29   0
   6   6   1  529.08   45.17   0
   8   0   4  395.22   31.78   0
   9   3   4  226.92   30.33   0
   3  -5   4  516.89   34.08   0
   6  -4   7  204.36   34.01   0
   7  -1   3   18.79   24.42   0
   8   8   3  324.56   52.45   0
   9   1   5  228.25   29.30   0
   9   8   4   86.33   45.24   0
   3  -3   1 1337.33   39.71   0
   4  -5   5  180.36   32.13   0
   5  -4   4  955.12   39.54   0
   5   2   0 1543.62   43.17   0
   7  -2   4   42.06   24.66   0
   8   1   3  140.44   26.58   0
   1  -5   3  475.57   36.60   0
   5   1   0 1074.24   36.73   0
   5   4   0 1229.19   46.52   0
   6  -4   6   94.58   33.01   0
   6   0   1    8.12   20.16   0
   7   0   2   85.26   24.51   0
   9   2   4  306.50   27.84   0
   5  -5   8   60.13   40.42   0
   8   4   2  802.39   40.73   0
   8   5   2   21.36   31.51   0
   2  -6   6  134.60   38.86   0
   2   7   1   52.17   48.91   0
   4  -1   0 1045.16   34.57   0
   5  -5   7  321.42   41.65   0
   5  -3   2    6.30   19.04   0
   6  -2   2  224.61   26.88   0
   7   4   1  661.44   41.82   0
   7   8   2  639.32   55.85   0
   9   5   3  164.06   35.68   0
   2  -2   0 1586.53   46.42   0
   4  -5   4  833.65   39.60   0
   5  -5   6   -8.81   32.50   0
   5  -2   1  357.78   25.54   0
   6  -4   5  616.47   38.01   0
   6  -3   3  169.56   24.94   0
   7   2   1   91.01   24.25   0
   8  -1   4   16.34   24.28   0
   8   0   3   87.55   28.34   0
   8   2   2   25.28   23.64   0
   8   6   2  500.32   44.59   0
   9   1   4    8.47   26.72   0
   9   4   3  407.48   35.95   0
   9   6   3   47.30   34.89   0
   0  -3   1  218.51   35.97   0
   3  -5   3  638.18   34.37   0
   3  -2   0 4493.91   68.18   0
   4  -3   1   23.24   18.20   0
   5   0   0    4.85   18.60   0
   6   7   1  130.89   39.66   0
   7  -2   3  432.16   30.27   0
   7   5   1   57.99   32.39   0
   2  -6   5  463.92   39.36   0
   5   5   0 1482.90   54.72   0
   6  -1   1  892.60   33.83   0
   7   1   1  247.85   27.50   0
   8  -2   5   10.21   25.88   0
   9   7   3  343.58   49.06   0
   0  -5   3  835.88   52.76   0
   5  -5   5  771.99   41.46   0
   6   2   0  365.32   28.33   0
   8   1   2  404.73   30.83   0
   9   2   3   19.17   23.59   0
  -1   3   1 4345.41   85.66   0
   6  -4   4   -7.27   26.53   0
   8   7   2  781.47   54.65   0
   0   5   1 4255.11   93.86   0
   4  -2   0   28.12   17.12   0
   5  -1   0 1426.19   39.03   0
   6   1   0  272.71   24.88   0
   7   0   1  877.93   36.75   0
   8  -2   4  416.30   30.38   0
   8  -1   3  442.59   31.87   0
   4  -5   3 1103.57   41.41   0
   5  -5   4  336.16   33.57   0
   6  -5   7   26.36   33.96   0
   9   1   3  435.96   31.64   0
   2  -5   2  230.19   27.91   0
   3  -4   1 1138.70   36.93   0
   4  -6   6  187.03   40.50   0
   5  -3   1 1283.08   38.25   0
   6   0   0 1376.21   39.96   0
   7  -2   2  506.52   31.13   0
   3   1  -1   20.58   17.70   0
   5   8   1   20.84   47.31   0
   6  -5   6  211.51   34.05   0
   7  -4   5   17.05   30.24   0
   7  -3   3  604.57   31.66   0
   8   4   1  367.83   37.64   0
   9   4   2   86.51   32.21   0
   1  -6   4  395.97   38.77   0
   3  -6   4  150.48   33.98   0
   3  -5   2 1528.08   44.46   0
   3  -3   0  300.17   24.45   0
   4  -6   5  295.58   41.78   0
   4   6   0 1085.45   63.68   0
   6   5   0    5.87   29.25   0
   7  -1   1  568.85   32.90   0
   9   0   3  396.33   31.57   0
   9   5   2  499.82   39.93   0
   2  -3   0 6012.04   85.66   0
   3   0  -1 1236.80   40.05   0
   3   2  -1  499.32   33.43   0
   4  -4   1  835.25   32.74   0
   4   2  -1 1718.63   49.08   0
   5  -2   0 1695.05   41.54   0
   6  -5   5   44.56   31.45   0
   8  -2   3  270.09   28.08   0
   8  -1   2  118.95   28.26   0
   8   5   1  737.16   44.88   0
   8   8   2  146.53   51.50   0
   9   6   2  332.34   42.77   0
  10   5   3  313.02   36.81   0
  -2   0   2 1297.90   49.15   0
   4   0  -1  664.47   30.04   0
   5  -5   3  351.35   31.86   0
   5   6   0  209.59   39.97   0
   6  -1   0 1329.99   38.86   0
   7  -4   4  565.21   36.28   0
   7   3   0   10.57   29.68   0
   8   1   1  516.04   30.89   0
  10   6   3  226.91   39.26   0
  -1   2   1  327.69   29.16   0
   4  -5   2  390.41   29.62   0
   4  -3   0  731.29   30.62   0
   5  -6   6  316.79   42.82   0
   7   1   0 1058.21   38.47   0
   9   1   2  236.56   27.35   0
   3  -1  -1 4087.17   66.25   0
   5   1  -1  305.28   23.69   0
   6  -5   4  257.33   35.09   0
   6  -4   2  540.18   32.75   0
   6  -3   1  107.50   26.28   0
   6   8   1  859.89   65.36   0
   7  -3   2   13.58   22.59   0
   8   0   1   13.99   25.16   0
   8   6   1  143.08   43.92   0
  10   7   3    6.61   46.46   0
  -2  -4   5 1598.73   85.20   0
   2   0  -1 2429.37   62.81   0
   2   1  -1 5991.06  106.36   0
   3  -6   3  960.06   42.40   0
   4  -1  -1 1494.48   39.72   0
   5  -6   5  333.57   39.27   0
   5  -4   1  462.00   28.91   0
   5   0  -1 2307.16   48.26   0
   7  -2   1   21.95   25.64   0
   7   0   0  145.00   26.91   0
   9   7   2   25.40   46.27   0
   6  -2   0   39.66   23.18   0
   8  -2   2  188.47   27.23   0
   9   0   2   27.02   28.26   0
   5  -3   0  554.23   28.49   0
   8  -3   3   14.88   24.56   0
   2  -1  -1 1183.22   42.41   0
   4  -6   3    8.03   28.53   0
   5  -6   4   80.28   31.78   0
   5  -1  -1 2087.24   45.36   0
   6  -5   3  377.30   33.15   0
   7  -1   0  445.40   31.27   0
   8  -1   1  544.90   34.75   0
   9   3   1  633.67   39.88   0
   9   4   1  323.51   40.20   0
  -1   1   1 3034.10   83.43   0
   1  -3   0 2722.99   67.88   0
   3  -4   0  656.14   30.33   0
   3  -2  -1  172.45   20.70   0
   4  -2  -1 3326.78   54.76   0
  10   4   2  290.79   35.27   0
  10   5   2    8.78   36.08   0
   4  -4   0 1157.16   36.17   0
   6  -6   6   52.35   35.82   0
   6  -4   1  448.55   30.70   0
   6   0  -1  558.95   29.45   0
   6   3  -1   55.40   25.63   0
   7  -3   1  659.59   33.22   0
   8   1   0  165.99   28.34   0
   8   7   1  125.11   49.23   0
   9  -1   2  387.61   32.06   0
   9   1   1  237.22   30.52   0
   9   5   1    1.68   36.82   0
   2   2  -1 4117.31  100.51   0
   4   4  -1 1652.93   58.27   0
   5   4  -1  374.50   32.40   0
   6  -6   5  149.39   34.76   0
   6  -3   0 1312.14   40.01   0
   7  -5   4  207.21   30.81   0
   8   4   0  183.99   35.27   0
  10   6   2  126.31   44.14   0
  -2  -2   3  122.15   28.19   0
   2  -4   0 3080.47   61.64   0
   3  -6   2  217.74   28.92   0
   5  -6   3  713.06   41.25   0
   5  -2  -1  143.50   20.41   0
   6  -1  -1   86.32   21.68   0
   7   6   0  110.59   43.34   0
   8  -3   2  343.35   29.15   0
   8  -2   1  430.65   33.80   0
   8   0   0  685.78   33.30   0
   0  -6   4  976.79   66.27   0
   5  -4   0  464.82   27.94   0
   9   0   1  550.57   30.92   0
   9   6   1  291.52   49.81   0
   2  -2  -1 3746.27   68.34   0
   4  -7   5  476.04   45.45   0
   4  -6   2  508.57   35.45   0
   4  -3  -1  777.41   31.12   0
   7  -5   3   53.28   30.81   0
   7   1  -1   33.18   23.87   0
   8   5   0  105.99   38.88   0
   3  -3  -1  599.59   29.15   0
   7   0  -1  956.73   37.08   0
   8  -1   0  338.21   30.29   0
  -2  -3   4 1683.74   74.45   0
   6  -2  -1 1931.18   44.98   0
   7  -4   1  525.17   30.33   0
   9  -1   1  121.15   28.44   0
  -2  -4   6 1990.82   85.72   0
   0  -5   2 1719.02   71.99   0
   2  -7   4   10.18   31.75   0
   4  -7   4   30.57   38.15   0
   5  -6   2   16.94   26.38   0
   6  -6   3    1.18   32.08   0
   7  -3   0   45.42   25.66   0
   7  -1  -1  853.33   36.29   0
   8  -3   1   31.07   25.41   0
   9   2   0  315.66   35.69   0
   9   3   0   20.59   35.43   0
  10   3   1   19.09   30.48   0
  10   4   1  200.98   37.73   0
   1   7   2   10.25   31.04   0
   5  -7   5   -3.30   40.37   0
   5   7   0  309.90   49.46   0
   6   7   0 1014.00   61.95   0
   7   4  -1  146.68   35.36   0
   8  -4   2  113.28   29.71   0
   8  -2   0   -2.52   27.15   0
   9   4   0  326.54   41.48   0
  10   5   1  344.97   41.69   0
   2  -3  -1 1997.71   49.88   0
   3  -6   1 1666.63   48.14   0
   3   4  -1  695.39   49.67   0
   4  -7   3  517.90   43.49   0
   4  -6   1  128.11   29.09   0
   4   0  -2 1902.20   45.30   0
   5  -7   4  434.06   43.44   0
   5  -5   0 1827.04   45.22   0
   5   0  -2  538.68   28.02   0
   5   1  -2 1918.72   46.13   0
   5   5  -1  333.92   36.47   0
   6  -3  -1  615.92   32.68   0
   6   5  -1  839.96   48.87   0
   8   2  -1  445.38   36.11   0
   9   0   0   79.94   24.49   0
   1  -6   2    0.75   25.63   0
   4  -4  -1   14.19   18.20   0
   4  -1  -2 1451.95   38.92   0
   4   1  -2  109.03   19.23   0
   5  -1  -2  153.90   20.45   0
   6  -6   2  512.74   37.13   0
   7  -2  -1   29.45   22.42   0
   7   7   0  389.09   52.70   0
   8   0  -1   82.77   24.72   0
   8   3  -1   83.42   33.19   0
   2  -7   3  655.82   40.47   0
   3  -4  -1 2116.93   47.45   0
   5  -6   1  469.68   34.94   0
   5  -4  -1 1826.78   43.73   0
   7  -4   0   42.91   24.41   0
   8  -4   1  138.74   27.61   0
   9  -1   0  138.11   29.36   0
  10   6   1   92.62   50.81   0
   2  -6   1  262.14   27.78   0
   4  -2  -2  535.60   26.75   0
   5  -7   3  101.35   33.71   0
   5  -2  -2 1850.14   41.66   0
   6  -1  -2 1970.05   44.60   0
   8  -1  -1  136.17   26.12   0
   3  -1  -2   35.99   16.81   0
   3   0  -2 2509.90   55.30   0
   6  -7   4   66.01   35.59   0
   6  -5   0   96.67   24.33   0
   7  -3  -1  269.61   30.78   0
   7   5  -1  163.03   39.39   0
   8   4  -1  583.00   43.95   0
   3  -7   2  565.63   38.59   0
   4  -7   2  359.12   35.97   0
   6  -4  -1  150.53   26.32   0
  10   3   0  286.71   37.40   0
   3  -2  -2 3281.52   58.18   0
   6  -6   1  195.25   30.58   0
   6  -2  -2  323.99   26.35   0
   7  -6   2   27.34   28.70   0
   8  -2  -1  512.38   33.95   0
   9   6   0   43.89   46.71   0
   1  -1  -1 3332.22   83.19   0
   2  -4  -1   43.20   17.93   0
   3   1  -2 6794.12   95.16   0
   4  -3  -2  179.83   20.81   0
   5  -7   2  377.97   36.91   0
   5   3  -2  337.94   31.99   0
   6  -7   3  366.16   36.83   0
   7  -1  -2   -8.07   24.86   0
   7   2  -2   85.37   31.07   0
   9   2  -1  404.89   37.93   0
  10   4   0   52.86   37.96   0
   0  -6   3  548.49   56.26   0
   3  -6   0  905.86   37.06   0
   5  -5  -1  196.57   25.59   0
   7  -5   0  504.80   32.64   0
   8   5  -1  517.78   51.78   0
   9   0  -1  242.91   31.76   0
   3  -5  -1  941.60   35.01   0
   6  -3  -2  375.60   28.66   0
   7  -4  -1  654.45   33.72   0
   7  -2  -2  572.74   32.63   0
   9  -1  -1  396.30   32.23   0
  10   5   0   63.51   46.80   0
  -2  -2   4 4190.66   95.32   0
   1  -2  -1  357.16   28.94   0
   1   0  -1 6407.45  128.55   0
   3  -3  -2 1514.92   40.90   0
   4  -7   1  131.17   29.07   0
   6  -7   2  203.89   33.84   0
   7  -6   1  396.64   34.19   0
   7   3  -2  323.39   35.65   0
   8  -3  -1  387.82   32.46   0
   9   4  -1   66.02   38.11   0
   3  -7   1  982.21   40.79   0
   4  -4  -2 1690.97   41.63   0
   5  -7   1  478.01   37.46   0
   5  -4  -2   -1.69   19.02   0
   6  -5  -1  643.64   31.66   0
   6   6  -1   25.63   35.63   0
   8   0  -2  415.06   32.49   0
   8   2  -2  578.57   39.76   0
   1  -7   3  302.78   40.73   0
   4   3  -2 1554.45   51.72   0
   7  -3  -2  597.82   34.87   0
   8  -1  -2  606.35   32.22   0
   1  -6   1 2139.47   60.69   0
   2  -6   0 1426.91   44.85   0
   4  -8   3  467.70   46.26   0
   6  -4  -2  707.45   33.85   0
   6   4  -2   56.31   29.17   0
   6  -7   1  128.18   33.17   0
   7  -5  -1  215.64   26.72   0
   7   4  -2  960.08   49.50   0
   8  -4  -1   17.01   26.72   0
   8  -2  -2  251.15   30.04   0
   8   3  -2  487.29   40.54   0
   9   5  -1  208.83   49.19   0
   1  -3  -1 4273.46   80.46   0
   3  -4  -2  109.81   18.97   0
   5  -8   3   56.04   38.66   0
   5  -1  -3 1369.48   38.20   0
   5   0  -3  477.59   26.72   0
   5   4  -2  843.17   44.53   0
   6  -1  -3   95.01   22.39   0
   6   0  -3 1042.04   35.79   0
   8   6  -1    0.18   47.70   0
  10   3  -1   47.11   37.12   0
   2  -5  -1 2372.32   52.82   0
   2  -2  -2  413.48   26.15   0
   2  -1  -2 5199.66   81.88   0
   4  -7   0  822.82   39.05   0
   5  -5  -2  459.14   29.07   0
   5  -2  -3  635.80   28.98   0
   6  -2  -3  204.76   25.27   0
   7  -4  -2   -3.56   25.72   0
   9   1  -2  567.79   39.99   0
   4  -8   2   -1.55   35.26   0
   4  -1  -3  103.98   18.62   0
   5  -7   0   41.85   26.61   0
   7  -1  -3  927.36   35.57   0
   8  -3  -2   89.64   27.01   0
   9  -1  -2   12.06   27.25   0
   9   2  -2   68.66   34.19   0
  10   4  -1  194.37   44.05   0
   2   0  -2 1204.15   44.63   0
   3  -7   0   18.17   25.50   0
   4  -2  -3 1343.45   36.62   0
   4   0  -3  585.93   29.17   0
   5  -3  -3  162.11   21.38   0
   6  -5  -2  389.16   30.20   0
   8   4  -2   26.86   38.01   0
   2  -3  -2 2377.77   52.40   0
   6  -7   0  539.61   36.96   0
   6  -3  -3  898.55   32.88   0
   9   3  -2  209.16   38.71   0
   1  -7   2  812.92   48.33   0
   4  -3  -3 2256.01   45.23   0
   6  -8   2   -6.92   34.75   0
   6   2  -3   29.77   24.58   0
   8  -4  -2  539.35   34.69   0
   4  -8   1  705.25   41.97   0
   5  -8   1   22.35   30.46   0
   7  -5  -2  290.77   28.42   0
   7  -3  -3    4.15   24.91   0
   7   2  -3  653.17   37.71   0
   8  -1  -3   24.32   24.30   0
   0  -5   1 3017.89   89.99   0
   1  -4  -1 2462.25   60.20   0
   5  -7  -1  566.28   36.26   0
   5  -6  -2 1128.74   37.21   0
   5   2  -3 2827.48   59.97   0
   6  -4  -3  221.92   26.26   0
   7  -7   0   28.65   29.38   0
   7   5  -2  282.55   43.51   0
   8  -2  -3  313.32   28.68   0
   9   4  -2  582.94   52.11   0
  -1   1   2   19.53   15.59   0
   2  -4  -2 3888.09   64.05   0
   4  -7  -1   11.42   28.45   0
   4  -6  -2  254.14   24.29   0
   4  -4  -3   21.00   18.52   0
   6  -8   1  467.93   37.27   0
   6  -6  -2    1.03   22.39   0
   6   5  -2  496.66   43.28   0
   8   2  -3   -6.53   32.42   0
   1   1  -1 1381.21   73.65   0
   3  -8   1   11.33   32.16   0
   3  -2  -3 1539.58   41.04   0
   3  -1  -3 2864.00   55.50   0
   6  -7  -1   22.44   28.81   0
   7  -4  -3  671.07   35.49   0
   8  -3  -3  581.32   33.05   0
   8   5  -2  446.01   51.64   0
   2  -8   2  214.24   35.70   0
   2  -7   0 1685.31   49.18   0
   3  -3  -3  159.43   19.73   0
   4   4  -2   89.86   28.41   0
   5  -8   0  532.67   40.27   0
   5  -5  -3  823.15   34.22   0
   6   3  -3  592.38   37.98   0
   7   3  -3  399.84   38.16   0
   2   1  -2   65.47   20.20   0
   3  -7  -1 1761.97   47.00   0
   4  -8   0  112.60   31.46   0
   6  -5  -3  158.97   25.68   0
   7  -6  -2  437.10   31.32   0
   9   1  -3  192.42   35.31   0
   3   0  -3  564.55   29.71   0
   4  -5  -3  849.55   32.74   0
   6  -8   0  171.06   33.86   0
   6  -2  -4  438.34   29.21   0
   6  -1  -4  934.12   34.96   0
   7  -7  -1  478.80   35.14   0
   8  -4  -3  126.86   29.34   0
   0   4   2 1233.79   49.99   0
   3  -4  -3 2249.90   47.13   0
   5  -2  -4  496.89   27.12   0
   5  -1  -4   99.79   21.10   0
   6  -3  -4   21.48   22.08   0
   7  -5  -3  353.17   30.59   0
   7  -2  -4  180.79   25.12   0
   7  -1  -4  217.16   26.35   0
   9   5  -2  237.11   53.11   0
  10   4  -2    4.73   43.46   0
   2  -5  -2  773.11   31.51   0
   5  -3  -4 1297.28   36.98   0
   5  -6  -3   94.54   24.25   0
   6  -6  -3  884.54   34.22   0
   7  -3  -4  954.46   35.94   0
 -10  -1   0    8.35   40.88   0
  -9   0   1  240.40   44.80   0
  -8  -6  -1   92.26   30.57   0
  -7   0   2  580.33   39.04   0
  -6  -5   0   11.36   24.40   0
  -4  -6  -1  656.11   32.14   0
  -3 -11  -7  605.44   45.45   0
  -3  -4   0  846.27   34.27   0
  -2 -11  -8  363.42   44.39   0
  -2  -8  -4 1278.59   48.18   0
  -1  -8  -5 1431.37   57.54   0
   2  -5  -7  437.66   54.10   0
  -9  -7  -2   12.11   33.86   0
  -5 -12  -7  620.09   44.02   0
  -4  -3   1   87.87   20.10   0
  -3   0   2 2545.82   62.85   0
  -2  -6  -2  898.28   38.11   0
 -10  -2   0  149.01   38.62   0
  -9  -1   1    9.01   35.38   0
  -7 -10  -4  328.28   33.04   0
  -7  -9  -3   -0.40   30.42   0
  -6 -13  -8   78.25   39.29   0
  -6  -9  -3  735.51   37.84   0
  -4 -11  -6  477.13   39.10   0
  -4  -1   2   71.89   20.26   0
  -1  -5  -2 3804.71   81.01   0
  -1  -2   0 6165.85  114.05   0
  -9  -4   0  333.73   37.13   0
  -8 -10  -4  274.87   35.97   0
  -8   2   2  258.49   45.10   0
  -7  -8  -2  565.01   39.84   0
  -6  -8  -2  349.76   33.99   0
   0  -6  -4   25.42   32.62   0
  -9  -6  -1  214.54   32.58   0
  -8  -5   0   83.39   27.99   0
  -8  -3   1   67.12   31.18   0
  -8   1   2  601.64   46.15   0
  -6 -11  -5   31.85   33.40   0
  -4 -13  -9  105.96   46.48   0
  -4  -5   0  532.26   29.36   0
 -10  -3   0  275.06   38.46   0
  -9  -2   1  417.74   40.86   0
  -8  -8  -2  101.14   32.04   0
  -8   0   2  435.67   41.07   0
  -7 -12  -6   67.00   37.76   0
  -6  -7  -1   87.00   29.66   0
  -6  -4   1 1225.86   41.16   0
  -5  -9  -3   -6.22   25.27   0
  -5  -8  -2  791.16   38.48   0
  -3  -9  -4 1259.42   45.81   0
  -3  -7  -2    3.20   17.92   0
  -1  -9  -6  480.19   46.02   0
   0  -7  -5 2182.58   85.32   0
   2  -4  -6  195.49   41.21   0
  -7  -4   1  127.64   27.98   0
  -5 -13  -8  232.97   44.65   0
  -5  -4   1  359.60   27.47   0
  -5   2   3  656.17   38.80   0
  -5   3   3  158.27   31.31   0
  -2  -5  -1 1570.47   46.61   0
  -8  -7  -1   92.06   32.12   0
  -6 -12  -6  458.95   43.89   0
  -5 -11  -5  596.19   41.99   0
  -5  -7  -1 1189.97   40.51   0
  -5  -2   2  483.14   29.10   0
  -4 -12  -7    1.63   40.53   0
  -3 -10  -5  134.29   33.37   0
  -8  -1   2   26.54   30.53   0
  -7  -6   0   74.69   30.67   0
  -6   2   3  196.68   32.35   0
  -9  -3   1  471.25   39.89   0
  -6   3   3  859.79   44.32   0
  -5   1   3 1363.24   45.94   0
  -4   2   3 1337.23   50.85   0
  -1  -4  -1 5536.07   96.46   0
  -1   0   1 6941.71  146.59   0
 -10  -1   1  358.76   48.46   0
  -9  -7  -1  328.83   36.00   0
  -8  -6   0  462.46   34.29   0
  -6   1   3   90.47   25.15   0
  -5 -12  -6  209.90   39.68   0
  -5  -6   0  193.58   25.48   0
  -4  -8  -2  745.45   34.53   0
  -4  -4   1 1670.68   43.75   0
  -4  -2   2 1972.19   48.36   0
  -3  -1   2 6754.13   92.42   0
  -2  -2   1 4003.11   75.93   0
  -8  -2   2  567.66   39.64   0
  -7 -10  -3  241.71   31.38   0
  -4 -10  -4  537.89   38.13   0
  -4   4   3    7.00   35.43   0
  -3 -11  -6  333.05   41.74   0
   1   2  -1 4355.69   89.88   0
 -10  -2   1   57.03   36.86   0
  -9   0   2  336.42   45.06   0
  -8 -10  -3   66.62   33.37   0
  -8  -9  -2   73.27   34.78   0
  -7  -9  -2  469.89   34.22   0
  -7  -5   1  138.82   28.05   0
  -7   2   3  634.55   43.37   0
  -6 -10  -3  135.24   32.74   0
  -6  -5   1  834.85   37.99   0
  -6  -3   2 1304.80   40.82   0
  -6   0   3 1051.14   43.04   0
  -6   4   3  247.53   39.79   0
  -4  -7  -1   43.07   21.14   0
  -3  -5   0 2100.81   49.29   0
  -9  -6   0   36.07   34.11   0
  -9  -4   1   64.64   33.73   0
  -7 -12  -5  127.68   38.82   0
  -7  -8  -1  102.98   33.81   0
  -7   1   3  983.18   46.47   0
  -6  -9  -2  202.80   30.26   0
  -5  -3   2  353.76   26.72   0
  -4 -13  -8  415.54   48.39   0
  -4 -11  -5   13.25   31.78   0
  -2  -4   0 4962.26   79.13   0
  -1   5   1   20.75   26.58   0
   0  -8  -6 2438.78   95.60   0
  -9  -1   2  569.17   44.33   0
  -8  -8  -1  465.84   38.02   0
  -7   3   3    9.35   34.78   0
  -5 -13  -7   99.55   37.84   0
  -5  -5   1  312.23   26.92   0
  -2 -11  -7  641.56   46.70   0
  -1 -10  -7   21.08   40.64   0
 -10  -3   1   46.32   36.10   0
  -8  -3   2  517.80   38.69   0
  -7  -7   0  326.44   36.03   0
  -7   0   3  217.18   31.74   0
  -6 -14  -8    3.15   40.34   0
  -6 -12  -5  367.73   41.97   0
  -4  -6   0 1012.59   36.59   0
  -9  -2   2   54.75   34.60   0
  -8  -7   0  257.69   33.58   0
  -6  -1   3 1018.79   40.05   0
  -5  -9  -2  917.07   39.15   0
  -7  -1   3  186.50   31.68   0
  -5 -11  -4   19.24   32.49   0
  -5  -8  -1    6.07   26.89   0
  -4 -12  -6  401.83   44.10   0
  -2  -8  -3 1049.75   43.53   0
  -8   1   3   20.96   37.44   0
  -7  -4   2  913.50   39.08   0
  -6 -13  -6   14.27   36.00   0
  -6  -4   2   41.72   24.71   0
  -5   5   3  828.11   74.09   0
  -4  -3   2 1581.91   42.89   0
  -2   0   2 1281.12   49.48   0
  -9  -7   0  104.45   31.65   0
  -9  -3   2  198.14   38.01   0
  -8   0   3  866.42   47.75   0
  -7  -6   1  989.71   41.93   0
  -5  -7   0  317.19   29.45   0
  -3  -9  -3    0.62   24.88   0
  -3  -4   1  660.12   30.35   0
  -3  -2   2 2675.83   57.08   0
  -2  -9  -4  334.21   34.18   0
   1  -1  -2    7.55   22.94   0
  -8 -10  -2  290.77   35.78   0
  -8  -6   1   13.75   26.62   0
  -7 -10  -2   65.85   28.19   0
  -6  -6   1    5.59   27.27   0
  -4  -5   1 2125.27   46.93   0
  -3 -10  -4 1177.97   46.57   0
  -3  -7  -1  912.47   35.96   0
  -8  -9  -1  177.45   35.38   0
  -8  -1   3  521.75   39.17   0
  -7  -9  -1  232.10   33.66   0
  -7  -2   3  624.85   38.28   0
  -3   3   3  159.43   35.46   0
  -2  -6  -1 1459.02   43.64   0
  -1  -3   0   32.08   18.79   0
  -7 -12  -4  185.38   35.96   0
  -6 -10  -2  654.06   36.83   0
  -4 -13  -7  498.08   50.93   0
  -4 -10  -3  749.97   42.25   0
  -2  -3   1    1.85   16.19   0
 -10  -2   2  301.42   40.60   0
  -9  -4   2  516.00   40.50   0
  -8  -8   0   -0.11   31.73   0
  -6  -9  -1  428.71   32.94   0
  -5 -13  -6  385.04   43.22   0
  -5  -6   1 1066.58   37.77   0
  -5  -2   3 2847.12   54.94   0
  -4  -8  -1 1290.97   40.85   0
  -3 -11  -5 1022.02   48.79   0
  -8  -2   3    0.96   28.27   0
  -7  -5   2  281.02   30.71   0
  -6 -12  -4  165.80   38.37   0
  -4 -11  -4  652.91   42.60   0
  -3  -6   0  764.08   32.52   0
  -9   0   3   41.91   40.32   0
  -8  -5   2  409.42   35.70   0
  -6  -8   0   17.61   27.41   0
  -6  -5   2  546.76   33.75   0
  -4  -7   0 1171.38   38.22   0
  -1  -9  -5 1093.39   55.24   0
   0   3   0 3985.53   97.21   0
  -9  -1   3  199.87   38.83   0
  -8  -7   1  231.91   31.45   0
  -7  -7   1  345.44   34.96   0
  -6  -3   3  604.77   32.46   0
  -2  -5   0    8.03   16.78   0
  -1  -1   1 1395.72   56.57   0
   0  -9  -7  277.79   63.34   0
  -8  -3   3  427.21   37.61   0
  -6 -13  -5  486.66   42.84   0
  -5 -11  -3  608.37   41.20   0
  -5  -9  -1  585.29   34.55   0
  -4 -12  -5  208.49   39.77   0
  -2  -1   2   73.58   18.16   0
  -9  -2   3  555.24   41.07   0
  -6  -7   1  591.89   38.06   0
  -6   1   4  955.95   39.85   0
  -6   2   4  425.95   35.78   0
  -5 -14  -7   62.87   46.31   0
  -5  -5   2  995.72   36.12   0
  -4  -2   3  377.45   25.08   0
  -3 -12  -6   61.01   40.17   0
  -3  -3   2 1034.08   35.60   0
  -3   0   3  607.36   33.79   0
  -1  -5  -1  545.66   34.27   0
  -7   1   4  239.09   35.72   0
  -6   0   4  124.86   25.42   0
  -5  -8   0  668.57   35.10   0
  -5   2   4  532.23   35.88   0
  -4  -6   1   80.44   21.91   0
  -3  -5   1  405.28   26.48   0
  -9  -3   3  148.88   36.21   0
  -7 -10  -1  481.78   33.42   0
  -7  -6   2  154.26   29.95   0
  -7  -4   3   36.41   24.51   0
  -7   2   4  203.55   34.75   0
  -5   1   4  108.82   23.25   0
  -8  -9   0  145.91   33.88   0
  -8  -6   2  451.99   32.79   0
  -7  -9   0  151.59   31.49   0
  -7  -1   4  310.81   32.01   0
  -6  -4   3  744.31   34.59   0
  -6   3   4   10.86   28.45   0
  -5  -7   1  443.16   31.96   0
   1   0  -2 2802.68   85.19   0
  -8   0   4   -3.52   36.23   0
  -6 -10  -1   -2.61   25.72   0
  -6  -6   2  942.42   39.27   0
  -6  -1   4  567.49   31.74   0
  -5 -13  -5   13.73   34.64   0
  -5   3   4 1289.65   53.00   0
  -4 -13  -6   14.67   43.43   0
  -1 -10  -6 1325.26   60.12   0
   0   2   0 2460.72   92.38   0
   1   1  -2  173.73   23.82   0
  -8  -8   1  289.46   37.01   0
  -8   1   4  517.48   43.03   0
  -7  -8   1   35.79   31.16   0
  -6 -12  -3  304.64   39.85   0
  -6  -9   0  544.28   34.93   0
  -3 -10  -3  771.14   41.31   0
  -3  -1   3  417.25   26.26   0
  -2  -9  -3 2121.62   57.77   0
  -2  -8  -2  674.88   36.29   0
  -2  -4   1 3921.77   67.22   0
  -9  -4   3   44.67   33.10   0
  -8  -1   4  371.30   35.64   0
  -7  -2   4    2.59   27.68   0
  -4 -10  -2  922.35   41.93   0
  -4  -5   2 1714.42   42.92   0
  -7  -5   3  619.49   34.98   0
  -6 -13  -4   24.62   36.90   0
  -6  -8   1  642.71   36.07   0
  -5  -6   2    3.02   24.41   0
  -5  -4   3    6.14   20.63   0
  -4 -11  -3   43.62   31.29   0
  -4  -8   0   10.49   23.76   0
  -4  -3   3  683.30   30.12   0
  -3 -11  -4   -2.24   33.86   0
  -3  -7   0  343.15   26.08   0
  -2  -2   2 4775.39   76.59   0
  -8  -7   2   29.46   28.21   0
  -8  -2   4  382.06   37.09   0
  -4   1   4 1619.89   49.10   0
  -4   2   4 2751.46   66.20   0
  -3  -4   2 4716.60   68.10   0
  -1  -4   0 3606.61   72.66   0
  -9   0   4  367.07   46.55   0
  -7  -7   2  527.13   35.79   0
  -6  -5   3   30.38   26.26   0
  -5 -14  -6  187.90   45.92   0
  -5 -11  -2  164.31   34.11   0
  -4 -12  -4  104.64   34.97   0
  -9  -5   3  353.29   36.08   0
  -9  -1   4  169.64   39.35   0
  -5  -9   0  322.33   30.25   0
  -5  -2   4   38.97   19.41   0
  -4  -7   1  585.62   30.56   0
  -2  -6   0 1226.93   38.81   0
  -1  -2   1 4206.28   83.97   0
  -9  -2   4   26.31   31.33   0
  -8  -3   4  107.55   30.35   0
  -6  -7   2  220.39   31.72   0
  -6  -3   4  343.36   27.76   0
  -5 -12  -3   87.84   34.26   0
  -3 -12  -5  396.85   44.12   0
  -3  -6   1 3368.67   58.58   0
  -3  -2   3 1065.27   36.23   0
  -5  -8   1   -8.05   26.54   0
  -5   4   4  331.69   46.14   0
  -4   3   4   -0.95   26.19   0
  -1  -7  -2   25.04   23.53   0
  -9  -3   4  351.24   36.90   0
  -8  -6   3  152.32   28.20   0
  -7  -9   1  453.09   34.48   0
  -7  -6   3  393.70   32.44   0
  -5 -13  -4  372.91   38.98   0
  -5  -5   3 1294.75   40.34   0
  -4 -13  -5  387.21   43.54   0
  -4  -4   3 1857.28   44.61   0
  -8  -4   4   50.84   30.87   0
  -6 -12  -2   11.28   32.59   0
  -6 -10   0  569.56   34.11   0
  -4  -6   2 2643.11   51.49   0
  -3   6   1  257.77   43.30   0
  -1  -9  -4  906.11   48.69   0
   0  -8  -5   28.78   39.60   0
  -7  -8   2  359.61   34.64   0
  -6  -9   1  111.88   28.02   0
  -6  -6   3  236.13   30.28   0
  -5  -7   2  727.32   35.67   0
  -5  -3   4 1020.31   35.33   0
  -2  -3   2 2018.91   48.92   0
  -9  -4   4  203.34   33.52   0
  -7   0   5    0.02   27.75   0
  -7   1   5  846.88   42.66   0
  -6 -13  -3  126.55   33.91   0
  -6  -4   4  444.39   29.61   0
  -6   0   5 1360.98   44.70   0
  -6   1   5  596.22   35.70   0
  -3 -10  -2  243.85   33.49   0
  -3  -5   2 1631.71   42.53   0
  -2  -5   1 2230.89   49.66   0
   1  -2  -3  242.69   39.71   0
  -7  -1   5  517.21   33.93   0
  -5 -14  -5  221.02   44.68   0
  -4 -11  -2  391.91   36.70   0
  -4  -2   4  783.89   31.09   0
  -3  -3   3 1133.79   36.05   0
   0   3  -1  210.82   27.13   0
  -8  -1   5   93.71   30.43   0
  -8   0   5  429.94   38.34   0
  -7   2   5  541.70   39.99   0
  -6  -8   2   55.89   29.22   0
  -6  -1   5  366.99   32.02   0
  -6   2   5  179.44   30.87   0
  -3 -11  -3  775.55   43.25   0
  -2 -12  -6  997.94   55.53   0
  -8   1   5  229.81   39.28   0
  -7  -7   3   11.49   27.71   0
  -7  -5   4   12.95   23.56   0
  -5 -11  -1  162.26   32.59   0
  -5  -6   3  963.44   37.52   0
  -2  -9  -2  111.50   27.03   0
  -2   1   3  481.39   34.95   0
  -1 -10  -5   12.53   32.63   0
  -8  -2   5   86.74   32.33   0
  -7 -10   1  167.57   32.25   0
  -5 -12  -2  511.84   39.65   0
  -5  -9   1  505.79   32.96   0
  -5  -4   4 1226.66   39.67   0
  -5   0   5   39.09   20.59   0
  -5   1   5 1059.43   41.03   0
  -2 -10  -3  301.43   34.13   0
  -2   0   3 3893.12   74.53   0
  -1  -3   1 4056.15   75.23   0
   1   0  -3 2794.07   73.85   0
  -9  -1   5  221.77   40.51   0
  -6  -5   4  908.78   37.66   0
  -4  -3   4  357.26   25.41   0
  -3 -12  -4  512.49   44.18   0
  -1  -5   0 3880.43   71.02   0
  -9  -2   5  196.13   34.66   0
  -8  -3   5  568.03   39.32   0
  -7  -9   2   11.10   30.30   0
  -7  -3   5   87.78   28.00   0
  -6  -7   3  789.45   38.68   0
  -5 -13  -3  112.77   36.30   0
  -5   2   5 1594.35   50.93   0
  -4 -13  -4   79.35   37.31   0
  -4  -7   2  144.82   26.31   0
  -3   0   4 2186.02   51.61   0
  -8  -6   4  239.44   34.24   0
  -6 -12  -1  225.89   35.35   0
  -6   3   5  852.95   46.50   0
  -5  -8   2  556.18   34.15   0
  -3  -4   3   88.36   18.77   0
  -2  -4   2   35.37   17.80   0
  -2  -1   3 4797.36   76.34   0
  -9  -3   5   14.20   30.93   0
  -7  -6   4  328.60   29.02   0
  -6 -10   1   50.79   24.87   0
  -5  -2   5 1704.60   42.93   0
  -3  -6   2   58.36   20.60   0
  -3  -1   4 1835.85   44.92   0
   0  -9  -6 1046.72   76.74   0
  -8  -4   5  242.00   34.48   0
  -7  -8   3  173.52   31.93   0
  -5 -14  -4   43.79   38.72   0
  -5  -5   4   15.43   24.76   0
  -2  -6   1  192.91   21.07   0
  -6  -6   4  334.00   29.67   0
  -5  -7   3   38.95   24.77   0
  -4  -6   3  356.32   27.48   0
  -4  -4   4  109.11   21.02   0
  -6  -4   5  366.72   29.45   0
  -5   3   5  373.38   37.76   0
  -4 -11  -1  387.25   35.88   0
  -3 -10  -1  415.52   34.73   0
  -3  -2   4   34.64   16.66   0
  -2  -2   3  160.83   20.34   0
  -1 -11  -6  229.79   43.81   0
  -5  -3   5  117.56   23.48   0
  -4 -12  -2   -3.09   33.38   0
  -4  -9   1  325.84   28.47   0
  -4   1   5  315.12   27.12   0
  -3 -11  -2  236.37   35.47   0
  -1   0   2 3079.70   80.93   0
  -7  -7   4  411.66   32.31   0
  -7  -5   5  514.61   35.13   0
  -7   0   6  963.91   41.95   0
  -5 -12  -1  142.32   35.85   0
  -4  -1   5  562.79   27.58   0
  -3  -8   1   89.26   24.24   0
  -1  -4   1  377.03   26.29   0
   0   2  -1 2315.45   72.10   0
  -8  -1   6  494.28   36.55   0
  -7  -1   6   26.88   26.50   0
  -4  -8   2  273.01   27.48   0
  -3  -5   3 1560.12   40.55   0
  -1  -1   2  182.82   22.34   0
  -8  -2   6  297.84   32.42   0
  -8   0   6   67.99   34.20   0
  -7  -2   6  436.53   33.29   0
  -7   1   6  686.73   40.03   0
  -6   0   6  178.71   29.13   0
  -5 -13  -2  114.02   33.08   0
  -5  -9   2   41.30   24.45   0
  -5  -6   4  365.95   30.37   0
  -4 -13  -3  382.64   38.56   0
  -4  -2   5  136.29   20.10   0
  -4   2   5  192.67   25.64   0
  -3 -12  -3   43.95   39.92   0
  -2  -9  -1  914.17   39.53   0
  -2  -5   2  123.13   19.36   0
  -6  -7   4   11.85   28.80   0
  -6  -5   5   61.00   24.41   0
  -6   1   6  452.22   34.21   0
  -5  -4   5  488.18   30.69   0
  -4  -5   4 1316.58   38.85   0
  -3  -3   4  658.25   29.13   0
  -2 -10  -2  824.75   40.83   0
  -2  -3   3 1111.74   36.13   0
  -1 -10  -4  459.98   41.54   0
  -1   1   2   22.07   22.90   0
   1  -1  -4  139.28   26.67   0
  -9  -2   6   77.09   34.66   0
  -9  -1   6   40.96   37.56   0
  -8  -3   6   56.46   29.26   0
  -7  -3   6  515.03   34.67   0
  -6 -10   2  260.26   30.25   0
  -6  -2   6  577.57   33.10   0
  -5 -14  -3  259.77   39.95   0
  -5  -8   3  487.28   32.08   0
  -4  -7   3  639.58   32.61   0
  -3   3   4 1787.64   67.97   0
   0  -7  -3  347.26   38.31   0
  -7  -6   5  149.37   25.66   0
  -7   2   6    7.66   32.27   0
  -2 -11  -3  157.32   38.49   0
  -2  -7   1 1235.55   38.97   0
   0  -6  -2  714.23   43.40   0
  -6  -9   3    7.86   27.63   0
  -6   2   6 1224.75   46.98   0
  -5   0   6  712.11   33.72   0
  -4  -3   5 1628.72   40.97   0
  -3 -13  -4  489.20   46.68   0
   1  -5  -6  911.71   66.10   0
  -8  -4   6  289.73   32.50   0
  -5  -5   5  995.81   36.84   0
  -5   1   6  728.48   35.76   0
  -3  -6   3 1095.51   35.53   0
  -6  -6   5  400.08   29.89   0
  -5  -7   4  668.60   36.01   0
  -4 -11   0   46.32   29.96   0
  -3  -4   4 1649.90   39.47   0
  -1  -5   1   96.07   19.78   0
  -6  -8   4  452.80   34.51   0
  -4 -12  -1  597.15   39.66   0
  -4  -9   2  577.66   32.26   0
  -4  -6   4  429.03   29.47   0
  -4   3   5 1752.76   59.75   0
  -3 -11  -1  346.60   34.39   0
  -3 -10   0   20.23   27.06   0
  -2  -6   2 1571.54   40.82   0
  -2  -4   3 2334.54   47.90   0
  -7  -7   5   38.74   27.95   0
  -6  -4   6  507.30   29.47   0
  -5 -13  -1  316.82   36.71   0
  -5 -10   2  299.46   31.01   0
  -5   2   6  123.45   28.06   0
  -4  -4   5 1152.46   35.81   0
  -3   0   5   56.85   17.53   0
  -1 -11  -5  841.00   52.87   0
  -1  -3   2 1714.14   46.40   0
  -7  -5   6    9.01   27.63   0
  -5  -9   3  504.26   31.05   0
  -5  -3   6 1791.09   43.23   0
  -5   4   5  780.72   54.74   0
  -4 -13  -2  338.54   36.62   0
  -4  -8   3  221.69   28.00   0
  -3 -12  -2  680.98   44.67   0
  -3  -1   5 1813.40   43.03   0
   1  -5  -7 2818.74   87.74   0
  -5  -6   5  254.89   28.70   0
  -2  -1   4 1099.71   36.86   0
  -2   0   4  967.77   36.40   0
  -1  -8  -1  775.25   37.57   0
   0  -3   0 4137.41   91.69   0
   1  -3  -5    0.32   25.94   0
  -8  -2   7  483.07   34.65   0
  -8  -1   7   20.05   28.01   0
  -7  -2   7   88.31   29.96   0
  -7  -1   7  635.24   36.75   0
  -7   0   7  257.39   33.84   0
  -6  -7   5  449.65   32.62   0
  -6  -5   6  549.50   31.67   0
  -6   3   6  200.38   35.25   0
  -3  -5   4  215.75   22.47   0
  -3  -2   5 1081.43   34.08   0
  -2  -9   0  680.19   36.47   0
   0  -9  -5 1229.32   71.46   0
   1  -4  -6 3002.00   87.53   0
  -8   0   7  259.46   36.49   0
  -5  -8   4   71.28   26.65   0
  -5  -4   6  386.42   28.27   0
  -4 -14  -3   12.93   40.70   0
  -4  -5   5   42.50   22.77   0
  -4  -1   6 2194.07   46.14   0
  -3  -7   3  115.85   23.68   0
  -2 -10  -1    9.59   28.20   0
  -2  -2   4 4173.75   64.18   0
  -8  -3   7  307.46   31.80   0
  -7  -6   6  301.12   29.40   0
  -7  -3   7  132.07   29.99   0
  -7   1   7   31.12   31.86   0
  -6  -9   4  338.86   31.20   0
  -6  -1   7    9.94   23.31   0
  -6   0   7  411.36   32.29   0
  -4  -7   4   24.66   24.13   0
  -4  -2   6 1378.48   37.61   0
  -4   1   6 1258.44   42.05   0
  -3 -13  -3  208.34   42.10   0
  -2 -11  -2  891.79   47.67   0
  -2  -5   3  718.26   28.73   0
  -2   1   4 5072.11   85.77   0
  -1  -4   2 2467.66   52.96   0
  -6  -2   7  359.06   30.15   0
  -3  -3   5  235.60   21.64   0
  -1  -6   1  930.01   35.14   0
  -6   1   7  967.42   42.80   0
  -4 -12   0  138.68   34.25   0
  -4 -11   1  812.00   39.97   0
  -3   2   5 2172.33   58.06   0
  -3   5   1  862.97   55.48   0
  -2  -7   2  540.50   28.50   0
  -2  -3   4 1675.37   40.82   0
   0   1  -1 3811.69  107.67   0
  -6  -6   6   37.09   24.29   0
  -5  -7   5  134.61   28.59   0
  -5  -5   6   86.52   25.09   0
  -5   3   6  755.88   42.53   0
  -4  -3   6   -5.86   21.38   0
  -3 -10   1  476.04   35.93   0
  -3  -6   4  582.06   30.74   0
  -7   2   7  592.98   41.94   0
  -6  -8   5   11.15   27.73   0
  -5 -10   3   71.95   28.70   0
  -5  -1   7  811.98   35.68   0
  -5   0   7  389.18   29.91   0
  -4 -13  -1   65.09   32.26   0
  -4  -9   3   18.21   23.84   0
  -4  -6   5  506.49   30.81   0
  -4   2   6 2438.26   57.64   0
  -3 -11   0  501.76   38.10   0
  -3  -4   5  644.47   28.75   0
  -2   4   1   38.25   27.59   0
   0  -4   0 3717.42   78.93   0
  -6  -4   7   60.81   24.86   0
  -3 -12  -1  -15.65   33.35   0
  -1 -11  -4    2.30   36.53   0
  -6   2   7  132.77   32.53   0
  -5  -9   4   91.20   23.83   0
  -5   1   7   29.82   24.87   0
  -4  -4   6  591.60   30.79   0
  -3  -8   3  234.73   25.68   0
  -2  -6   3   73.91   18.89   0
  -2  -4   4   50.57   18.19   0
  -1  -5   2 1349.34   39.43   0
  -1  -1   3  219.39   21.91   0
   0  -8  -3   75.41   32.17   0
  -5  -3   7   91.52   22.23   0
  -4 -14  -2  211.44   41.24   0
  -1  -2   3 5080.43   75.43   0
  -6  -7   6  195.07   29.09   0
  -5  -6   6  645.35   33.62   0
  -3 -13  -2  245.00   41.15   0
  -2 -10   0  821.29   39.40   0
  -2  -9   1  181.64   30.48   0
  -1  -9  -1  433.29   34.79   0
  -1  -8   0 1177.39   42.37   0
  -8  -2   8   14.45   28.15   0
  -8  -1   8  285.25   33.87   0
  -7  -1   8   77.84   27.73   0
  -6  -5   7  233.70   25.38   0
  -3  -5   5 1123.24   35.95   0
  -3  -1   6   24.95   15.88   0
  -1  -3   3 1181.50   37.14   0
  -1   0   3 2777.60   65.91   0
   0   1  -2  224.88   26.18   0
  -8   0   8  240.94   39.15   0
  -7   0   8  167.31   32.24   0
  -4  -7   5  738.83   33.70   0
  -4  -5   6  940.97   35.16   0
  -3  -2   6  390.28   24.68   0
  -3   0   6 2449.75   49.19   0
  -2 -11  -1  429.86   38.67   0
  -7  -3   8  339.81   32.32   0
  -6  -1   8  716.11   35.52   0
  -5   2   7 1124.14   44.38   0
  -4 -12   1  201.44   34.67   0
  -4 -11   2   16.88   29.93   0
  -2  -5   4 1061.12   34.23   0
   0  -9  -4  488.29   47.73   0
  -6  -2   8   39.07   25.32   0
  -6   0   8  359.96   31.90   0
  -5  -7   6  526.65   32.86   0
  -4  -2   7 1209.45   36.74   0
  -4   4   5 1944.93   76.40   0
  -3 -11   1   21.48   32.00   0
  -3 -10   2  351.90   33.43   0
  -2  -7   3 1604.30   41.31   0
  -2  -2   5   33.65   16.33   0
  -2  -1   5 1332.55   37.83   0
  -2   4   0 3069.46   84.09   0
  -7  -4   8    6.46   26.53   0
  -7   1   8  450.33   39.36   0
  -6   3   7  143.22   36.22   0
  -5  -5   7  309.66   27.47   0
  -2 -12  -2   52.15   39.20   0
  -2   0   5 3878.61   63.80   0
  -1  -6   2   17.95   17.12   0
  -1  -4   3  315.13   22.84   0
  -6   1   8   14.63   30.58   0
  -4  -6   6  194.95   28.34   0
  -4  -3   7 1075.99   34.88   0
  -4   3   6  858.44   43.12   0
  -3 -12   0  346.44   36.31   0
  -3  -6   5  483.49   29.45   0
  -2  -3   5 1447.60   37.66   0
  -1 -11  -3  744.82   46.18   0
   0  -2   1 2342.28   67.28   0
  -5  -9   5  237.37   28.63   0
  -5  -1   8   98.19   26.82   0
  -3  -4   6  419.84   27.51   0
  -3   3   5  447.37   37.36   0
   0  -3   1  205.35   23.05   0
  -5   0   8  201.02   27.78   0
  -4  -8   5   32.92   23.72   0
  -4  -4   7   72.48   22.97   0
  -3 -13  -1  346.41   43.33   0
  -2  -6   4  916.23   33.04   0
  -5  -6   7   -6.72   23.24   0
  -2 -10   1   62.09   28.71   0
  -2  -9   2 1275.58   44.34   0
  -2  -4   5 1717.88   40.79   0
  -2   1   5 1577.12   46.22   0
  -1  -9   0  790.35   39.36   0
   0  -8  -2 1169.65   50.82   0
  -6  -5   8  116.43   27.20   0
  -5  -8   6   10.66   25.48   0
  -5   4   6 1122.65   57.85   0
  -2 -11   0  219.84   37.04   0
  -1  -8   1   18.38   22.44   0
  -1   1   3 3805.44   87.98   0
   0  -4   1 1489.66   46.96   0
  -6   2   8  521.33   39.27   0
  -5   1   8  870.06   37.67   0
  -5   3   7  535.77   38.18   0
  -4 -11   3  265.08   32.90   0
  -4  -7   6  158.58   27.69   0
  -4   2   7   50.69   22.29   0
  -3  -7   5   60.22   24.64   0
  -3  -5   6  154.13   24.93   0
  -3   2   6  415.55   29.71   0
  -1 -10  -1 1538.27   54.27   0
  -8  -1   9   92.54   31.57   0
  -7  -2   9   -5.20   26.91   0
  -5  -4   8    1.62   20.52   0
  -4  -5   7  101.32   24.36   0
  -1  -2   4  116.16   18.61   0
  -7   0   9  291.39   35.47   0
  -3 -10   3  208.80   31.81   0
  -3  -2   7  504.40   26.86   0
  -3  -1   7 2080.03   43.80   0
  -2 -12  -1  704.48   47.07   0
  -2  -5   5   85.83   19.65   0
  -1  -3   4 1753.66   42.05   0
  -1  -1   4 5260.39   75.14   0
   0  -9  -3  791.57   49.98   0
  -6  -1   9  122.93   29.62   0
  -5  -7   7  314.92   30.44   0
  -4  -9   5  260.22   28.64   0
  -4  -2   8  202.77   24.35   0
  -3 -12   1  156.80   33.34   0
  -2  -7   4   17.93   21.09   0
   0  -5   1 2903.56   60.99   0
  -6  -3   9  180.92   29.95   0
  -6   0   9  177.50   29.01   0
  -4   0   8  479.18   29.97   0
  -3  -3   7   80.45   22.30   0
  -2  -2   6 1798.13   40.97   0
  -2  -1   6 2422.06   47.68   0
   0 -10  -5  842.99   67.05   0
  -7   1   9    8.63   32.64   0
  -5   2   8  259.49   32.52   0
  -4  -6   7  733.52   34.71   0
  -4  -3   8  307.41   25.51   0
  -3 -13   0   -4.06   39.19   0
  -1  -4   4 1903.17   43.23   0
  -1   0   4 2116.29   52.27   0
  -3  -8   5  757.02   32.28   0
  -3  -4   7 1262.38   37.67   0
  -2  -6   5  604.33   30.73   0
  -2  -3   6    4.52   16.41   0
  -2   0   6  892.12   32.19   0
  -6   1   9  690.03   41.70   0
  -5  -6   8  469.59   30.57   0
  -5  -1   9  499.26   31.80   0
  -4  -4   8  542.15   30.59   0
  -4   1   8   22.66   23.12   0
  -2 -11   1  578.92   38.17   0
  -2 -10   2  448.30   33.59   0
  -2  -9   3   -5.64   28.39   0
  -1  -9   1  770.89   39.67   0
  -1  -8   2  903.10   37.14   0
   0  -7   0 2209.41   56.34   0
   0   0  -3  961.29   44.63   0
  -6   3   8  735.88   47.30   0
  -2  -4   6 1941.05   42.01   0
  -1 -10   0   -4.97   31.13   0
  -1  -5   4  373.94   24.83   0
   0  -3   2 5594.00   82.87   0
  -4  -7   7  168.55   28.04   0
  -3  -7   6  423.99   29.49   0
  -3  -5   7  877.77   36.32   0
   0  -4   2  227.55   23.08   0
   0  -2   2 2253.72   57.54   0
  -5  -4   9  304.93   27.72   0
  -4  -5   8  313.08   28.90   0
  -4   3   7  849.19   42.54   0
  -3 -10   4  370.75   34.26   0
  -2 -12   0  114.57   37.41   0
   0  -9  -2   95.95   33.40   0
  -7  -1  10  197.51   30.25   0
  -5   1   9   55.90   27.78   0
  -3 -12   2   74.54   32.22   0
  -2  -7   5  770.25   32.82   0
  -2  -5   6 1313.15   38.21   0
  -2   1   6  752.40   33.11   0
  -1  -2   5 4476.85   63.51   0
   0   0  -2 3006.50   91.13   0
  -6   2   9  414.18   39.97   0
  -3  -1   8   -1.85   17.16   0
  -3   3   6 2006.68   58.92   0
  -1  -3   5  683.96   27.80   0
  -7   0  10   15.48   32.32   0
  -6  -2  10   11.24   27.62   0
  -6  -1  10  152.42   28.62   0
  -5  -5   9   52.27   24.68   0
  -5   3   8  234.15   32.29   0
  -4  -6   8    1.48   26.74   0
  -4   4   6   22.78   31.09   0
  -3 -13   1  267.33   36.94   0
  -3  -6   7   24.24   25.19   0
  -3  -3   8  564.99   29.71   0
  -3   2   7 2332.02   53.68   0
  -1  -6   4  313.21   24.12   0
  -1  -1   5 1122.93   34.89   0
   0  -5   2 1714.52   43.98   0
  -4  -3   9  319.19   25.03   0
  -3  -8   6    6.34   21.84   0
  -2 -10   3  449.88   36.04   0
  -2  -2   7  739.84   29.31   0
  -2   3   4  258.31   38.90   0
  -1  -4   5  566.21   27.42   0
  -1   1   4  141.86   21.27   0
   0  -1   2  206.44   24.82   0
  -6   0  10  585.03   34.67   0
  -5   4   7   18.63   33.27   0
  -4   0   9   74.17   24.29   0
  -3  -4   8   -0.65   22.44   0
  -2 -11   2   11.43   31.06   0
  -2  -9   4  729.57   37.24   0
  -2  -6   6   72.59   23.60   0
  -2  -3   7 1410.79   37.47   0
  -2  -1   7  236.54   21.09   0
  -1 -10   1  896.19   44.29   0
  -1  -9   2  137.95   29.58   0
  -1   2  -1   55.87   23.84   0
   0  -8   0  280.74   31.39   0
   0  -7   1  524.51   32.38   0
  -5   2   9  443.57   36.84   0
  -4  -4   9   17.59   20.94   0
  -1  -8   3  489.44   32.62   0
  -1   0   5  169.67   20.89   0
   0 -10  -3  919.39   54.82   0
   0  -1  -4 1977.73   62.84   0
  -5  -2  10  451.26   31.95   0
  -5  -1  10  298.01   31.31   0
  -2 -12   1  163.82   38.36   0
  -2  -4   7  100.49   23.53   0
  -2   0   7 1225.00   35.14   0
  -1  -5   5 1368.87   37.68   0
   0  -3   3 1795.93   45.63   0
  -6   1  10  119.54   33.85   0
  -5   0  10   33.24   26.94   0
  -4   1   9  787.76   35.88   0
  -3 -10   5   16.47   29.32   0
  -3  -5   8  219.44   28.64   0
  -1 -11   0  501.87   43.27   0
   0  -4   3 2469.04   50.93   0
   0  -2   3  701.62   31.86   0
  -1   2   0 2234.98   91.72   0
  -2  -7   6  341.20   26.19   0
  -2  -5   7  309.35   26.61   0
  -1  -2   6  446.83   24.48   0
  -5   1  10  838.99   41.29   0
  -4   3   8 1199.55   46.53   0
  -3  -6   8  380.96   29.85   0
  -3  -2   9   26.09   20.08   0
  -1  -6   5  307.69   25.97   0
  -1  -3   6 2331.57   46.02   0
   0 -10  -2 1313.02   55.10   0
   0  -5   3  863.36   32.40   0
  -3  -8   7  382.21   28.63   0
  -3  -3   9  473.56   29.05   0
  -2 -11   3  378.34   35.89   0
  -2 -10   4   22.34   30.85   0
  -1  -9   3  536.00   36.06   0
  -1  -4   6  903.82   31.95   0
  -1  -1   6  865.45   31.07   0
   0  -8   1 1891.95   51.19   0
   0  -7   2  468.67   30.49   0
  -6  -1  11  238.41   30.56   0
  -6   2  10  144.37   37.71   0
  -4  -3  10  471.71   29.92   0
  -4  -1  10  513.26   30.97   0
  -4   2   9  955.52   39.29   0
  -3   2   8  138.04   24.93   0
  -3   4   1 2131.73   80.32   0
  -2  -9   5  110.46   28.08   0
  -2  -6   7  808.91   33.51   0
  -2  -2   8  348.58   26.84   0
  -1 -10   2  433.72   35.86   0
  -1  -8   4  270.02   30.59   0
   0  -1   3 2993.99   64.14   0
  -6   0  11   32.45   29.20   0
  -5   3   9  924.26   46.17   0
  -4   0  10  923.12   37.24   0
  -3  -4   9  906.79   35.46   0
  -3   3   7  668.26   36.87   0
  -2 -12   2  355.27   37.38   0
  -2  -3   8  263.05   25.11   0
  -2  -1   8 1119.46   34.03   0
  -1 -11   1   47.69   37.63   0
  -1   1   5 2051.87   51.85   0
  -4  -4  10  475.44   28.42   0
  -3  -7   8   37.39   26.89   0
  -2  -4   8 1259.21   38.64   0
  -1  -5   6   17.85   22.12   0
  -1   0   6 3717.34   60.50   0
   0  -3   4 1114.23   35.56   0
  -5  -2  11   23.36   27.59   0
  -5  -1  11  168.05   29.81   0
  -5   2  10  795.85   43.94   0
  -3  -5   9  151.47   26.44   0
  -3   4   2  111.09   43.05   0
  -3   4   5  684.28   60.86   0
  -2   0   8  746.89   29.55   0
  -1   2   3  290.44   38.48   0
   0  -4   4   98.02   18.99   0
   0  -2   4 2891.77   55.97   0
   0  -1  -3   71.14   23.14   0
  -4   1  10  126.44   26.04   0
  -3   1   9    8.83   20.40   0
  -6   1  11  266.69   35.58   0
  -5   0  11  498.31   33.97   0
  -5   4   8  477.55   43.34   0
  -2  -5   8  396.45   29.40   0
  -1 -12   0  445.11   45.37   0
  -1  -6   6  493.91   29.01   0
   0  -8   2   40.15   25.22   0
   0  -5   4 2618.05   50.80   0
  -2 -11   4   83.37   32.19   0
  -2 -10   5  301.28   33.77   0
  -1 -10   3  232.32   35.80   0
  -1  -9   4   53.62   29.29   0
  -1  -3   7  102.90   20.13   0
  -1  -2   7 1140.35   33.60   0
   0  -9   1  429.87   36.81   0
   0  -7   3 1131.45   40.06   0
   0   0   2 3270.64   87.24   0
  -3  -6   9  136.48   26.52   0
  -3  -2  10  908.02   32.87   0
  -2  -9   6  176.96   30.38   0
  -1  -4   7  971.60   35.13   0
  -1  -1   7 1212.63   35.55   0
   0  -1   4  924.11   35.21   0
  -3  -3  10  215.97   23.59   0
  -2  -6   8   31.90   24.10   0
  -2  -2   9  812.41   32.96   0
  -1 -11   2  727.47   44.07   0
  -4  -1  11  689.70   34.51   0
  -4   3   9  111.94   29.88   0
  -3  -4  10  111.11   24.61   0
  -2  -3   9  379.35   27.91   0
  -2  -1   9   75.56   21.22   0
  -1  -5   7  649.41   32.01   0
   0  -4   5 2148.72   46.21   0
  -4   0  11   17.39   25.53   0
  -4   2  10  149.59   28.89   0
  -3   2   9  589.20   32.73   0
  -2  -4   9    0.63   24.51   0
   0  -2   5  400.95   24.70   0
  -3  -5  10  438.18   32.02   0
  -3   3   8  322.77   28.82   0
  -2   0   9  723.40   29.32   0
  -1 -12   1  257.34   42.01   0
   0  -8   3  450.27   34.58   0
   0  -5   5  303.76   26.15   0
   0   0   3  968.51   41.61   0
  -5  -1  12  325.39   30.84   0
  -5   3  10   -6.41   33.34   0
  -3   1  10  794.25   36.22   0
  -2  -7   8  560.70   30.37   0
  -1  -6   7   10.46   23.32   0
  -1   1  -2 5842.73  110.21   0
   0  -9   2  379.12   35.74   0
  -5   2  11   22.31   33.70   0
  -4   1  11  431.07   33.00   0
  -2  -5   9  503.82   31.69   0
  -2   3   6 1126.92   46.84   0
  -1 -10   4  475.31   37.76   0
  -1  -9   5  378.93   36.42   0
  -1  -2   8 1286.28   37.12   0
   0  -1   5 1752.14   44.18   0
   1  -5  -1   34.78   29.63   0
  -5   0  12   74.94   27.75   0
  -4   4   8   10.67   26.74   0
  -1 -11   3   47.91   30.78   0
  -1  -4   8  203.72   25.02   0
  -1  -1   8   16.36   17.67   0
   0 -11  -1  253.91   40.61   0
   0 -10   1   45.93   35.35   0
   1  -6  -1 1266.25   55.81   0
  -3  -2  11  120.98   25.36   0
   0  -3   6   15.83   17.93   0
   0   0   4 1914.43   51.11   0
   1  -6  -2 1684.02   76.81   0
  -3  -3  11  516.37   27.74   0
  -2  -6   9  434.91   30.12   0
  -2  -3  10  360.27   28.71   0
  -2  -2  10   43.92   22.85   0
  -1   1   7  125.27   18.50   0
   0  -4   6  271.86   23.90   0
   0  -2   6  696.77   28.95   0
  -5   1  12  171.50   30.29   0
  -4  -1  12   34.19   27.86   0
  -3   0  11  963.37   38.33   0
  -2  -1  10  538.33   28.37   0
  -1 -12   2  114.24   41.20   0
  -1   0   8  962.09   32.93   0
   0  -9   3   -6.06   28.19   0
   0  -8   4  361.54   33.77   0
   1  -7  -1  685.25   45.66   0
  -4   2  11  666.88   38.36   0
  -4   3  10  777.42   41.66   0
  -3   2  10  844.91   36.92   0
  -2  -4  10  519.38   30.71   0
   0  -5   6 1043.88   35.74   0
   1  -7  -2  115.08   35.97   0
   1  -6   1 2195.89   57.99   0
  -4   0  12  398.37   32.31   0
  -2   3   7  703.53   37.71   0
  -1 -10   5   15.07   30.73   0
  -1  -6   8  964.93   35.15   0
   0 -10   2  558.43   44.71   0
   0  -5  -6 2928.94   91.16   0
   0  -1   6 1153.72   35.46   0
   1  -4   2 1515.82   47.05   0
  -3   1  11  532.02   32.95   0
  -2  -5  10    6.29   26.84   0
  -1 -11   4  300.97   36.26   0
  -1  -9   6  268.28   33.73   0
  -1  -3   9  328.56   29.34   0
  -1  -2   9  115.12   23.75   0
  -1   2   6   17.10   19.28   0
   0  -1  -2 2955.81  115.06   0
  -5   3  11  401.87   42.16   0
  -3   4   7    4.53   29.09   0
  -2   2   9  167.38   24.04   0
  -1  -4   9  500.59   31.39   0
  -1  -1   9 1159.72   37.13   0
   0  -3   7 2359.43   46.55   0
   1  -7   1 1301.07   47.78   0
   1  -6   2   13.22   22.61   0
  -5   2  12  579.27   43.51   0
  -4   1  12  331.18   32.33   0
  -4   4   9 1028.66   46.30   0
  -1 -12   3  353.65   40.54   0
  -1   1   8 2428.84   48.74   0
   0 -11   1  543.25   47.45   0
   0  -4   7  334.78   27.56   0
   0  -2   7  735.12   30.15   0
   1  -3   2   44.11   20.30   0
  -2  -2  11  425.98   27.58   0
  -1  -7   8  175.15   29.94   0
  -1  -5   9  179.47   26.25   0
   0  -9   4  660.41   39.03   0
   0  -8   5  119.72   29.00   0
   1  -8  -1  248.97   37.94   0
   1  -4   3   19.17   16.14   0
  -2  -3  11   76.51   23.64   0
  -2  -1  11  303.71   25.61   0
  -1   0   9 1466.02   38.54   0
   0 -10   3  584.84   42.07   0
   0  -5   7  225.30   25.53   0
   0  -1   7   16.33   18.13   0
   0   0   6   50.18   18.18   0
   1  -7   2  863.69   41.04   0
   1  -3   3 1766.38   47.76   0
  -3   0  12  145.28   27.08   0
  -3   2  11  148.64   26.77   0
  -2  -4  11  227.23   29.23   0
  -2   3   8  726.45   36.27   0
  -1   2   7 1635.94   46.48   0
   1  -6   3 1786.12   48.08   0
  -5   1  13  309.99   37.43   0
  -1  -6   9   59.54   23.16   0
   0  -6   7  803.98   35.36   0
   1  -4   4 2481.04   51.43   0
  -4   0  13   90.75   28.13   0
  -1  -3  10  255.70   28.83   0
  -1  -2  10  712.21   33.07   0
   0  -3   8  228.43   26.53   0
   0  -2   8  409.18   27.22   0
   1  -3   4 1338.09   40.10   0
   0  -2  10   -3.53   35.71   0
   1   0  14  205.46   36.17   0
   2   0  12  596.56   37.75   0
   7   9   9  574.40   37.03   0
   2   0   3 1616.46   45.14   0
   4   2  12   88.73   23.35   0
   5   3   9  766.90   32.98   0
   5   8   3  947.15   54.04   0
   7   8  11   11.35   27.14   0
  -1  -3   6 2356.70   66.96   0
  -1  -3   7   94.15   34.33   0
   5   3   8  638.71   30.85   0
   5   3  10   86.76   23.80   0
   5   9   3   11.95   41.98   0
   6   5  10  194.53   22.32   0
   6   5  11  665.05   31.56   0
   6   9   5  763.83   47.28   0
   6  10   5  639.99   52.62   0
   7   8  10  532.51   35.00   0
   7  10   8  479.63   44.13   0
   1  -1  12  470.62   41.28   0
   2  -1   7   37.43   18.51   0
   3   0   7  133.62   20.37   0
   3   0   8  873.41   32.58   0
   3   1  13  509.94   35.47   0
   5   3   7  404.33   25.15   0
   5   3  11  663.70   32.91   0
   5   4   5 1630.12   41.78   0
   6   5   8  693.36   31.05   0
   6   5  12   11.86   24.16   0
   7   8   9  266.49   33.27   0
  -2   0  -1  594.25   34.47   0
  -1  -3   5  673.80   43.20   0
   2  -1   6 2211.07   46.82   0
   2   0  13  140.12   32.87   0
   3   0   9 1049.67   35.63   0
   5   7   3 2276.97   66.71   0
   6   6   6  151.29   28.67   0
   6   8   5  124.18   33.09   0
   7   9   8   35.61   31.75   0
   0  -2  11  688.73   46.69   0
   1  -2   7  534.59   32.56   0
   1   4  -1  379.01   48.96   0
   3   0   6 1869.28   42.43   0
   3   2   2 3847.77   70.92   0
   4   3   3 2282.17   51.16   0
   5   3  12  129.14   24.30   0
   1  -2   8 1142.90   42.64   0
   1   0   1 4146.57   98.37   0
   2  -1   5 2232.97   48.55   0
   2  -1  10  718.38   38.06   0
   4   1   8  285.86   25.37   0
   5   3   6 1329.72   36.93   0
   7   8   8  331.08   33.99   0
   3   1   3 5169.98   74.31   0
   3   1  14    4.48   29.19   0
   4   1   7  317.70   24.49   0
   4   1  10   60.74   22.51   0
   4   2   4 1517.06   40.32   0
   5   3  13  383.46   29.56   0
   7   7   9   31.59   27.34   0
  -1  -3   9  353.57   39.43   0
   1  -2   9  131.37   32.04   0
   1  -1  13    3.74   37.84   0
   3   0   5  335.59   23.80   0
   4   1  11  543.45   30.82   0
   5   6   3  191.75   29.73   0
   6   4  10  110.96   24.70   0
   7  10   7    6.77   39.10   0
   1   5  -1   97.48   34.55   0
   2  -1  11  283.98   32.88   0
   2   0  14  190.49   33.99   0
   4   1   6  562.87   27.20   0
   7   9   7  275.73   38.98   0
  -2  -1   0  833.02   50.16   0
   5   2   8   22.20   21.78   0
   5   2   9  902.51   35.20   0
   5   2  10  375.78   28.31   0
   6   4   8   30.28   22.03   0
   6   6   5 1834.12   49.43   0
   7   7   8  564.10   33.32   0
   0  -2  12  184.72   41.93   0
   2  -1   4  519.07   28.36   0
   2   8   0   58.06   53.89   0
   3   0  12   29.85   27.74   0
   5   2  11  171.61   25.14   0
   5   3   5    3.51   17.01   0
   7   8   7  857.27   42.42   0
   4   1   5  234.24   20.92   0
   6   4   7 1098.16   35.34   0
  -1  -3  10  249.87   40.55   0
  -1   1  -1  159.01   23.40   0
   0   2  -1 2189.50   83.77   0
   2  -1  12   79.42   32.24   0
   2   0   2  626.92   31.98   0
   2   1   1 1714.63   56.87   0
   3   0   4  985.10   33.73   0
   5   2  12  476.64   28.19   0
   5   5   3 1225.38   44.62   0
   8  10  10  205.66   36.62   0
   1  -2  11   76.63   35.95   0
   3   0  13  481.12   36.28   0
   4   1  13  139.60   29.02   0
   6   8   4  549.19   43.36   0
   7   6   8  146.45   27.76   0
   7   7   7   63.04   27.97   0
   1  -2   4  159.33   21.21   0
   5   2   6  150.42   20.85   0
   6   3  10  484.56   31.28   0
   6   9   4   19.78   39.14   0
   8   9  10  329.23   34.51   0
   3  -1   8  258.25   24.66   0
   4   2   3 3081.51   56.55   0
   6   3   9  282.93   26.21   0
   6   3  11    7.31   25.70   0
   6   4   6  939.22   33.78   0
   6   7   4  941.63   46.94   0
   7   5  10  411.91   27.58   0
   7   5  11   88.04   23.29   0
   7   9   6  437.59   42.46   0
   8  10   9  171.25   42.26   0
   2  -1  13  377.85   35.45   0
   3  -1   7 1119.21   34.96   0
   4   0   8  262.78   26.04   0
   4   0   9  341.42   26.86   0
   4   0  10  595.95   31.00   0
   5   3   4 2108.82   45.70   0
   6   3  12  557.12   32.65   0
   7   8   6   12.07   35.06   0
   1  -2  12  421.64   44.50   0
   2  -2   8  777.25   36.39   0
   3  -1   6  396.41   26.29   0
   3  -1  10  265.02   30.17   0
   4   1   4 2385.26   47.63   0
   4   3   2  937.05   38.87   0
   7   6   7  363.80   30.93   0
   8   8  10   52.88   28.09   0
   8   9   9   12.58   29.31   0
   2  -2   9 1074.89   42.38   0
   3   1   2  788.76   33.74   0
   5   1   9   97.42   24.51   0
   5   1  10  584.21   30.28   0
   6   6   4   10.32   25.35   0
   2  -1   3 2402.86   52.36   0
   3  -1  11  436.32   33.76   0
   4   0   6   65.19   19.51   0
   5   1   8 1630.36   41.88   0
   5   1  11   60.56   24.02   0
   8   8   9  189.06   31.22   0
   2  -2  10   -0.36   27.98   0
   3   0   3 1101.73   35.93   0
   4   0  12  709.82   36.91   0
   5   1   7  953.98   34.71   0
   8   7  10   85.60   28.90   0
   2  -1  14   13.98   36.08   0
   3  -1   5 2070.90   44.74   0
   7   4  10  459.42   27.46   0
   7   4  11  108.01   26.25   0
   8   9   8  321.24   42.63   0
  -1   2  -1   47.81   20.44   0
   0   3  -1  197.31   31.09   0
   2  -2   5  123.46   19.99   0
   2  -2  11  651.04   40.21   0
   3  -1  12  447.64   35.93   0
   6   2   9  121.27   26.48   0
   6   3   6   26.00   20.35   0
   6   5   4  933.10   40.14   0
   7   4   9    6.12   21.34   0
   7   6   6  575.54   35.08   0
   8   7   9  275.93   32.11   0
   1  -3   7    1.51   24.90   0
   1  -3   8  633.73   37.41   0
   3   2   1   13.88   20.38   0
   4   0   5 1869.16   41.95   0
   4   7   1   56.71   61.50   0
   5   1   6  355.28   24.28   0
   5   7   2   85.13   39.33   0
   6   2  11  286.67   27.87   0
   8   8   8  393.84   35.21   0
   1  -3   9  440.61   37.71   0
   5   2   4 2282.30   46.87   0
   5   6   2 1611.53   61.07   0
   6   2   8 1038.36   35.94   0
   7   4   8  839.46   32.60   0
   1  -3   6 2048.46   50.47   0
   3  -1  13   38.97   31.38   0
   4   1   3 1062.46   35.05   0
   7   8   5  687.85   46.16   0
   7   9   5  119.56   43.27   0
  -2  -4   7   79.72   41.84   0
   1  -3  10  313.69   41.08   0
   2  -2  12   49.95   30.65   0
   3  -1   4 1653.93   40.55   0
   6   2   7   36.62   23.00   0
   7   5   6   34.24   26.38   0
   7   7   5  314.48   36.94   0
   8   6   9   39.54   28.56   0
   8   7   8   -0.43   27.67   0
   4   2   2   55.21   17.30   0
   5   1   5  675.16   29.48   0
   6   3   5  907.74   32.39   0
   2  -2   4 2430.20   50.64   0
   3  -2   9  224.99   31.09   0
   4  -1   7  356.34   27.43   0
   5   0   9  516.46   30.25   0
   5   0  10  154.23   23.94   0
   7   3  10  138.17   25.32   0
  -2  -4   6 1975.70   80.40   0
   3  -2  10 1055.35   42.70   0
   4  -1  11  345.29   32.83   0
   6   2   6  509.10   29.85   0
   6   7   3   69.56   34.62   0
   7   6   5   54.84   28.92   0
   8   6   8  355.22   33.88   0
  -1  -4   8  147.93   37.95   0
   1  -3  11  391.11   45.39   0
   2  -2  13  195.94   41.16   0
   5   0   7   52.87   22.81   0
   6   1  10   -2.83   22.93   0
   6   8   3  235.27   47.63   0
   8   7   7  599.57   38.47   0
  -2   0   0   94.43   22.75   0
   2  -1   2   34.49   16.67   0
   3  -2   6  294.12   23.93   0
   3  -2  11   16.65   31.04   0
   3   0   2  955.17   35.01   0
   4  -1  12  257.79   33.07   0
   6   1  11  492.80   31.36   0
   6   6   3  951.41   44.19   0
  -1  -4   6  894.72   50.46   0
   2  -3   8   19.34   27.32   0
   2   0   1  599.36   33.14   0
   5   0   6 1578.23   40.10   0
   5   4   2  149.47   26.30   0
   7   5   5  515.33   33.51   0
   2  -3   7  738.77   35.30   0
   2  -3   9  658.59   37.62   0
   5   1   4    8.58   17.61   0
   5   2   3   13.99   16.75   0
   6   5   3  857.87   40.53   0
   7   3   7  147.26   23.04   0
   8   5   8  511.05   33.63   0
   8   6   7  256.75   33.07   0
  -3  -2   2 2608.34   85.15   0
   2  -3  10  467.76   39.38   0
   3  -2   5 4033.13   60.31   0
   3  -2  12  342.22   35.42   0
   3  -1   3   55.11   16.51   0
   4  -1   5 1078.92   33.90   0
   6   2   5  486.26   27.68   0
   1  -1   1  161.45   23.53   0
   3   1   1 2497.31   58.91   0
   7   2   9  325.48   27.58   0
   8   8   6  875.99   52.59   0
   2  -2   3  695.87   30.48   0
   4   0   3  691.87   29.18   0
   4   1   2 2138.15   48.30   0
   5   0   5   60.46   19.73   0
   8   4   9  453.90   32.17   0
   8   7   6  284.62   38.56   0
   2  -3  11  145.71   36.43   0
   5  -1   9 1028.21   35.93   0
   6   1   6  957.08   34.43   0
   6   4   3   12.11   23.86   0
   7   2   8    6.77   22.05   0
   7   3   6 1121.13   36.01   0
   7   4   5  602.74   33.42   0
   7   7   4  291.78   40.09   0
   7   8   4  101.33   40.66   0
   8   5   7   31.38   27.10   0
  -2  -4   5 1608.33   79.75   0
  -1  -4   5  573.51   41.21   0
   5  -1   8   -5.72   21.96   0
   7   6   4  828.99   43.06   0
   3  -2   4   60.41   18.28   0
   4  -2   7  334.40   26.71   0
   4  -2  10    7.30   27.62   0
   4  -1   4  294.77   23.44   0
   6   0   9  377.34   29.65   0
   8   6   6   96.32   31.40   0
   9   8   8  109.22   38.16   0
   2  -3  12  197.67   42.77   0
   2   6   0 1218.08   81.13   0
   4  -2  11  363.21   34.67   0
   6   0   8  246.45   28.04   0
   6   2   4  504.42   27.33   0
   1  -4   7  842.14   39.42   0
   1  -4   8    4.15   32.65   0
   3  -3   8 1366.28   44.51   0
   3  -3   9  193.10   29.82   0
   4  -2   6  456.38   27.78   0
   5   1   3 2046.44   44.81   0
   6   1   5  132.51   24.18   0
   7   5   4  181.75   29.83   0
   8   3   9   91.73   25.62   0
   9   7   8  327.03   34.39   0
   1  -4   9 1043.25   50.49   0
   3  -3  10  225.46   34.07   0
   5  -1   6  758.48   32.36   0
   5   0   4 1688.23   39.73   0
   6   0   7  814.52   34.53   0
   7   1   9    1.08   24.18   0
   8   5   6  753.30   39.27   0
   1  -4   6 1150.22   43.46   0
   1  -4  10   29.59   40.74   0
   1  -3   3 1796.40   49.15   0
   2  -3   4 1252.48   38.09   0
   4   2   1 1859.63   51.78   0
   7   2   6  181.43   24.42   0
   8   3   8  260.29   29.68   0
   3  -3  11  229.10   33.56   0
   3  -1   2 2731.18   53.56   0
   5   2   2 1771.18   44.22   0
   6   0   6   99.12   24.37   0
   7   1   8  315.13   28.72   0
   7   4   4  170.93   30.50   0
   9   6   8   99.20   29.73   0
   4  -2   5   -1.92   18.04   0
   5  -1   5  147.42   23.07   0
   8   7   5  224.80   40.51   0
   8   8   5   -3.24   41.04   0
   3  -2   3 2514.06   49.21   0
   4  -1   3 2704.69   50.06   0
   4   0   2 4364.32   64.96   0
   6   1   4 1150.05   36.99   0
   7   1   7  324.87   27.88   0
   8   6   5  589.59   41.29   0
   9   7   7   47.31   34.54   0
   1  -4   5  110.74   25.76   0
   2  -4   8  977.54   42.87   0
   2  -2   2 1326.23   40.25   0
   2   1   0  910.99   47.76   0
   3  -3   5  156.23   21.01   0
   3  -3  12    7.37   33.55   0
   3   0   1 4913.93   76.32   0
   7   2   5  451.76   27.83   0
  -2  -1   1 5558.10  127.32   0
  -1  -4   4 1871.74   64.78   0
   1   6   0 1202.96   58.85   0
   2  -4   7  252.35   31.05   0
   2  -4   9    8.24   32.11   0
   2  -1   1 3667.85   69.06   0
   5  -2   8  388.61   29.30   0
   5  -2  10  401.58   32.47   0
   6  -1   8  752.25   33.85   0
   6  -1   9    4.47   20.94   0
   6   0   5  902.31   34.34   0
   6   2   3 1889.43   43.94   0
   6   5   2   72.24   29.46   0
   6   6   2  323.05   41.20   0
   8   5   5  253.73   31.37   0
   9   5   8   11.64   26.33   0
   2  -4  10  664.48   46.28   0
   4  -3   8   83.29   27.89   0
   5   0   3 1251.60   36.25   0
   8   2   8  399.02   27.97   0
   9   6   7  167.85   30.37   0
   2  -4   6 1200.12   40.85   0
   4  -3  10  269.22   32.98   0
   4  -2   4 2883.61   50.76   0
   5  -1   4 2276.75   45.47   0
   6  -1   7  112.32   25.68   0
   6   4   2 1357.09   47.28   0
   7   0   9  214.72   28.44   0
   7   6   3  276.06   39.62   0
   2  -4  11  161.97   43.35   0
   2  -3   3  199.13   20.18   0
   3   8   1  330.47   66.85   0
   4   1   1 1770.65   46.45   0
   5  -2   6   19.07   22.33   0
   5   1   2  686.86   29.79   0
   5   4   1 1373.29   51.80   0
   5   5   1   17.40   29.98   0
   7   0   8  420.03   31.72   0
   7   5   3  333.94   34.77   0
   7   7   3  646.61   49.16   0
   9   5   7  487.02   35.69   0
   3  -3   4  769.46   30.38   0
   4  -3   6   59.34   23.05   0
   4  -3  11   52.27   29.97   0
   8   2   7   25.54   21.56   0
   8   4   5   85.62   27.21   0
  -1   1   0 3194.68   86.09   0
   1  -4   4 2543.87   56.54   0
   1   0   0    4.38   16.44   0
   2  -4   5 1292.59   40.40   0
   6  -1   6  490.86   30.56   0
   7   0   7   -1.03   25.59   0
   7   1   5 1303.44   37.78   0
   9   7   6  289.81   42.74   0
   3  -4   8  156.69   30.49   0
   3  -4   9  492.89   38.61   0
   5   3   1 1128.78   44.63   0
   6   0   4  136.42   21.87   0
   6   1   3   28.67   19.46   0
   6   3   2 1130.72   39.99   0
   7   4   3 1786.95   51.14   0
   9   6   6  482.94   36.90   0
   3  -4   7  656.68   35.47   0
   3  -4  10   10.79   29.68   0
   4  -1   2  240.23   21.16   0
   5  -2   5  503.19   29.29   0
   8   1   8  122.47   25.38   0
   8   2   6  618.12   32.37   0
   8   6   4   24.82   36.00   0
   8   7   4  453.10   46.76   0
   9   4   7  170.98   29.65   0
  -1   2   0 2431.19   66.43   0
   0  -5   8  385.08   42.40   0
   1  -3   2   55.07   19.99   0
   3  -2   2 1485.04   39.80   0
   4  -3   5  782.59   31.87   0
   4  -2   3 1355.59   37.71   0
   6  -1   5  824.79   36.38   0
   7   0   6  553.94   31.27   0
   8   5   4  334.52   37.32   0
   9   5   6   34.16   30.72   0
   0  -5   7  209.97   33.55   0
   1  -2   1   59.02   17.74   0
   3  -4  11  185.80   41.08   0
   5  -1   3   15.38   18.49   0
   5   0   2  216.06   23.33   0
   7   3   3  588.72   35.87   0
   3  -3   3 2357.04   48.50   0
   3  -1   1   30.69   15.18   0
   5  -3   9  148.58   30.71   0
   8   1   7  112.91   25.73   0
   1  -5   7  592.94   42.29   0
   4   0   1  280.21   23.31   0
   5  -3   7   -2.37   24.77   0
   5  -2   4  341.43   27.05   0
   6  -2   7   84.67   23.62   0
   7  -1   8   46.39   25.73   0
   7   1   4   -0.38   21.74   0
   9   4   6  148.57   32.16   0
   1   5   0 3780.35   97.56   0
   2   0   0  102.81   19.67   0
   4  -3   4  855.13   31.89   0
   7  -1   7  420.20   29.93   0
   7   0   5  268.54   26.42   0
  -2  -4   4   43.06   56.23   0
  -1  -5   6   24.04   31.14   0
   1  -5   6  122.00   29.45   0
   2  -3   2 2266.39   49.47   0
   4  -4   8  440.19   37.21   0
   4  -4   9    5.29   30.61   0
   5  -3   6  745.80   31.78   0
   6  -2   6  672.25   32.41   0
   6  -1   4   34.52   22.49   0
   8   1   6  424.56   27.77   0
   2  -5   8  521.16   44.65   0
   2  -2   1 4457.37   71.21   0
   2   5   0    8.69   37.07   0
   4  -4   7  417.75   32.44   0
   8   3   4  175.94   30.09   0
   2  -5   7  123.90   31.87   0
   2  -5   9  449.78   45.98   0
   5   1   1  361.66   25.14   0
   6   1   2  877.37   32.43   0
   7  -1   6  220.37   28.87   0
   9   3   6  361.34   33.28   0
   9   5   5  452.43   37.80   0
  -2   0   1 2291.47   68.21   0
   4  -2   2  793.98   30.11   0
   5  -3   5  458.82   28.27   0
   6  -2   5   -2.56   23.25   0
   8   0   7  552.59   31.96   0
   1  -5   5 2135.28   54.59   0
   2  -5   6  861.41   39.58   0
   2  -4   3 1244.36   38.03   0
   4   4   0  167.91   33.68   0
   5  -2   3  712.65   29.89   0
   5  -1   2 1398.80   38.23   0
   7   0   4  578.35   30.68   0
   7   4   2  254.93   33.05   0
   7   5   2 1168.63   52.51   0
   8   1   5    7.70   21.55   0
   9   4   5  322.99   35.56   0
  -1  -4   3  303.09   37.34   0
   4  -3   3  147.86   21.31   0
   4  -1   1 2161.24   46.97   0
   7  -1   5  291.20   28.23   0
   7   1   3 1131.82   36.54   0
   3  -5   8  171.17   33.33   0
   3  -5   9  185.69   34.81   0
   3  -3   2  396.38   24.33   0
   3   0   0  263.99   23.73   0
   6  -1   3 1542.23   41.00   0
   6   4   1  584.95   39.02   0
   7   3   2  648.09   37.82   0
   7   6   2  423.13   42.73   0
   8   0   6   79.67   24.03   0
   8   5   3  648.29   44.52   0
   8   6   3  557.03   48.10   0
  -2   1   1 1156.43   44.51   0
   2  -5   5    5.76   24.05   0
   3  -5   7  761.83   40.12   0
   3  -2   1 1650.43   42.11   0
   5  -3   4  363.46   27.95   0
   6  -2   4  846.50   34.41   0
   6   0   2  768.88   30.99   0
   6   3   1  313.59   32.54   0
   8   4   3    3.75   28.88   0
   9   3   5   13.29   29.11   0
   0   3   0 3931.06   95.55   0
   3  -5   6    0.27   27.39   0
   3  -5  10  306.80   41.91   0
   5   0   1 2030.68   45.73   0
   8   7   3   25.23   44.48   0
   1  -5   4  347.10   29.43   0
   3  -4   3   81.72   19.52   0
   4  -4   4   -3.36   22.40   0
   4   1   0  550.15   30.42   0
   6  -3   6   21.77   22.32   0
   7  -2   6   69.09   24.48   0
   8   3   3  264.51   32.25   0
   2  -1   0 1561.57   46.89   0
   7  -1   4  660.21   32.45   0
   7   0   3  814.26   33.14   0
   7   7   2   27.21   46.58   0
   8   0   5  344.77   26.73   0
   9   6   4  373.04   46.82   0
   1  -1   0 3416.60   83.68   0
   2  -5   4  722.97   33.81   0
   3  -5   5 1165.12   42.18   0
   6  -3   5  604.93   31.25   0
   9   2   5  201.86   29.58   0
   9   4   4    3.99   31.45   0
   4  -5   7   24.94   30.50   0
   4  -5   9  159.79   33.63   0
   5  -3   3 1382.44   39.21   0
   7  -2   5  934.73   36.79   0
   8  -1   6  121.83   27.70   0
   8   2   3  410.44   34.42   0
   2  -4   2  319.50   24.05   0
   2  -3   1  133.81   19.55   0
   4  -2   1  999.77   33.14   0
   5  -4   5   23.77   22.03   0
   6  -2   3  357.68   27.59   0
   6  -1   2   83.83   23.49   0
   6   6   1  553.52   50.64   0
   3  -1   0 3357.32   60.51   0
   4  -5   6 1324.80   42.84   0
   4   0   0 4431.55   68.76   0
   5  -1   1  390.99   25.41   0
   9   3   4  198.70   32.27   0
   0   2   0 2338.73   88.61   0
   4  -4   3 1431.29   38.11   0
   5   3   0   17.47   23.83   0
   6  -3   4  649.63   32.13   0
   7  -1   3   16.60   23.23   0
   2  -6   7  524.83   43.57   0
   2  -6   8   26.98   38.38   0
   3  -4   2 1850.04   43.19   0
   3  -3   1 1306.37   37.13   0
   5  -4   4  922.40   34.94   0
   7  -2   4   45.64   25.72   0
  10   5   5   67.57   37.03   0
   1  -5   3  490.04   30.59   0
   2   7   1   61.83   35.94   0
   6  -4   6  125.95   26.25   0
   6   0   1   16.25   19.14   0
   7  -3   6  331.50   30.11   0
   7   0   2   59.61   22.77   0
   9   2   4  333.50   33.34   0
  -3  -1   3  360.14   34.61   0
  -1  -5   4  362.63   40.36   0
   2  -6   6  138.76   34.42   0
   5  -5   7  339.80   33.59   0
   8   5   2   38.28   39.56   0
   0  -6   6  330.71   38.16   0
   3  -6   8  295.65   42.87   0
   4  -1   0 1086.74   35.21   0
   5  -3   2    8.81   19.17   0
   6  -2   2  238.24   25.69   0
   7   3   1 1562.56   50.97   0
   8   3   2  663.94   38.48   0
   2  -2   0 1580.13   44.47   0
   3  -6   7   67.95   31.77   0
   5  -5   6    6.45   26.75   0
   5  -2   1  360.92   24.64   0
   6  -4   5  612.89   30.22   0
   6  -3   3  149.71   25.99   0
   7  -3   5  155.63   25.48   0
   7   2   1  101.89   29.03   0
   8  -1   4   29.98   22.42   0
   8   0   3  104.67   26.75   0
   9   4   3  410.92   39.60   0
   9   5   3  150.11   44.32   0
   2  -6   5  466.43   35.48   0
   3  -6   6  376.20   36.15   0
   3  -2   0 4399.24   66.30   0
   4  -4   2  156.55   21.45   0
   4  -3   1   24.04   18.07   0
   5  -4   3   55.50   23.60   0
   5   0   0   13.06   16.41   0
   7  -2   3  410.71   29.00   0
   8   2   2   21.99   27.06   0
   8   6   2  554.80   52.69   0
   9   3   3  181.40   34.26   0
   6  -1   1  879.83   33.82   0
   7  -1   2  734.03   32.66   0
   7   5   1   57.14   36.92   0
   3  -6   5  390.61   33.40   0
   4  -6   8    7.36   34.27   0
   6  -4   4   17.07   23.00   0
   7  -3   4  304.62   28.91   0
   8   1   2  415.94   33.26   0
   9   2   3   22.19   30.73   0
   1  -2   0 2479.62   63.69   0
   2  -4   1 3671.12   61.78   0
   4  -6   7  410.53   35.72   0
   4  -5   3 1113.86   36.86   0
   6   2   0  334.98   32.04   0
  10   4   4  293.68   40.63   0
  10   5   4  200.04   44.01   0
   1  -6   4  398.99   31.29   0
   2  -6   4 1101.25   42.18   0
   4  -6   6  202.26   34.04   0
   4  -2   0   14.36   16.96   0
   5  -5   4  326.69   28.25   0
   5  -1   0 1450.83   39.63   0
   5   5   0 1505.67   71.71   0
   8  -2   4  402.25   30.37   0
   8  -1   3  446.57   28.58   0
   1  -4   1 2473.74   57.17   0
   3  -4   1 1149.29   35.12   0
   5  -4   2  918.10   34.95   0
   5  -3   1 1335.84   37.48   0
   6  -3   2 1115.93   38.63   0
   6   7   1  134.00   57.09   0
   9   1   3  442.60   35.70   0
  -3  -3   5  205.82   47.73   0
  -3  -2   4   20.93   32.96   0
   3  -6   4  125.45   27.20   0
   3  -5   2 1466.02   38.99   0
   4  -6   5  286.43   33.37   0
   6  -4   3  806.75   33.59   0
   6  -2   1  948.51   36.08   0
   7  -4   5   21.46   24.29   0
   7  -2   2  493.75   30.42   0
   7  -3   3  599.69   33.34   0
   7   6   1  883.20   59.85   0
   2  -3   0 5868.79   79.29   0
   3  -3   0  285.12   22.33   0
   4  -4   1  821.90   31.46   0
   5  -5   3  336.49   26.49   0
   2  -6   3    8.87   22.51   0
   4  -6   4  870.57   39.31   0
   4  -5   2  430.95   27.16   0
   5  -2   0 1659.97   41.14   0
   7  -1   1  533.34   30.61   0
   8   3   1   30.28   33.89   0
   9   3   2   82.59   35.53   0
   9   4   2   97.48   39.87   0
  -1   2   1  320.81   26.09   0
   2  -7   7  366.32   45.13   0
   3  -6   3  983.28   38.45   0
   3   0  -1 1255.33   42.66   0
   3   1  -1   13.18   21.09   0
   4  -3   0  770.75   29.89   0
   8  -1   2   94.94   24.30   0
   8   2   1  544.74   38.29   0
   8   4   1  389.94   44.70   0
   9   2   2  464.77   38.84   0
   1  -6   3 1635.99   46.98   0
   2  -7   6   15.80   35.87   0
   5  -6   5  327.43   32.73   0
   6  -4   2  540.15   30.91   0
   8   1   1  539.59   36.90   0
  -2   1   2 5339.27   90.57   0
   3  -7   7  230.65   40.39   0
   4   0  -1  659.04   30.20   0
   5  -4   1  439.68   27.54   0
   6  -3   1  110.62   24.28   0
   7  -3   2   14.48   25.01   0
   7   2   0  856.92   43.19   0
  10   3   3  197.39   36.00   0
  10   4   3   14.83   42.11   0
   3  -7   6  509.04   39.23   0
   3  -1  -1 4144.55   67.29   0
   5  -5   2  541.65   30.08   0
   7  -4   3   90.10   25.69   0
   7  -2   1   30.64   24.21   0
   7   1   0 1007.44   43.98   0
   7   3   0   21.27   29.35   0
   8   5   1  723.93   53.08   0
   9  -1   3    3.62   25.71   0
  -1  -6   5  277.45   41.76   0
  -1  -5   3 1449.47   61.84   0
  -1  -4   2 2506.72   85.57   0
   2  -5   1 1632.79   42.30   0
   3  -7   5   26.34   30.18   0
   3  -5   1  206.66   21.28   0
   4  -7   7  240.64   38.86   0
   4  -1  -1 1503.34   39.90   0
   5  -3   0  530.51   27.81   0
   6   5   0   10.84   37.34   0
   8  -2   2  181.41   26.18   0
   0   4   1  185.19   24.77   0
   1   3   0   29.51   28.58   0
   3  -4   0  641.62   28.42   0
   4  -7   6   90.75   31.71   0
   5   0  -1 2394.95   50.48   0
   6  -2   0   68.08   23.88   0
   8  -3   3    4.57   25.34   0
   9   0   2   38.20   28.64   0
   2  -4   0 3069.52   56.97   0
   2   0  -1 2363.34   65.62   0
   4  -5   1 1552.56   40.32   0
   7   4   0  765.90   49.19   0
   2  -7   4   22.77   27.87   0
   2  -1  -1 1151.64   42.14   0
   3  -7   4  817.56   38.26   0
   3  -2  -1  179.61   19.83   0
   4  -7   5  479.28   37.40   0
   4  -4   0 1181.63   34.86   0
   5  -1  -1 2091.89   45.88   0
   6  -5   2   57.87   25.92   0
   6  -4   1  447.33   30.14   0
   7  -4   2  352.04   30.68   0
   7  -3   1  628.05   32.81   0
   7  -1   0  463.11   29.34   0
   1  -6   2   -0.67   20.37   0
   4  -7   4   24.94   29.48   0
   5  -5   1   21.86   22.89   0
   8  -3   2  311.74   30.55   0
   4   3  -1   88.27   30.23   0
   5  -7   5  -10.40   29.58   0
   5  -4   0  418.03   27.88   0
   6   1  -1 1466.58   44.79   0
   7  -5   3   71.22   26.18   0
   9   2   1  100.59   34.96   0
   2  -7   3  675.68   35.65   0
   2  -2  -1 3661.62   66.47   0
   3  -7   3  183.97   29.61   0
   5  -6   2   20.81   21.37   0
   5  -2  -1  131.23   20.78   0
   7  -2   0  751.91   33.53   0
   8   2   0  159.58   36.04   0
   9   1   1  216.16   35.65   0
   9   4   1  346.99   51.33   0
  10   2   2   -5.39   32.64   0
  10   3   2  277.44   41.09   0
  10   4   2  319.55   51.22   0
   1  -4   0  948.84   36.67   0
   3  -3  -1  573.29   27.71   0
   4  -3  -1  770.32   29.35   0
   6  -6   3   -2.27   25.79   0
   6  -1  -1  106.81   21.19   0
   8   1   0  144.33   30.35   0
   1   5   1  505.45   38.61   0
   3  -6   1 1606.01   41.58   0
   3  -5   0 2362.81   48.08   0
   4  -7   3  521.91   34.17   0
   5  -7   4  402.80   35.26   0
   7  -4   1  583.87   33.23   0
   7   5   0  911.81   57.53   0
   8   0   0  665.13   37.81   0
   9   0   1  562.80   37.44   0
   4  -6   1  121.60   22.94   0
   4  -5   0    3.88   19.11   0
   5  -3  -1 1502.16   38.96   0
   6  -5   1  806.19   34.16   0
   7  -5   2  311.09   29.29   0
  -3  -2   5 1116.24   59.06   0
   1  -7   3  288.37   28.84   0
   2  -5   0   13.47   16.38   0
   3  -8   6   23.32   39.61   0
   6  -4   0 1065.35   35.27   0
   6   3  -1   55.15   31.00   0
   7  -3   0   48.55   25.05   0
   8  -3   1   43.68   21.96   0
   2  -3  -1 1905.76   46.13   0
   3  -7   2  579.80   33.45   0
   5  -7   3  114.10   28.23   0
   5  -5   0 1843.94   43.96   0
   6  -6   2  531.68   29.36   0
   7   0  -1  968.33   41.57   0
   7   1  -1   22.04   29.71   0
   8   4   0  167.37   44.47   0
   0  -7   4    5.93   28.39   0
   2  -8   5  181.92   39.47   0
   2  -7   2  706.60   33.94   0
   3  -4  -1 2125.33   45.45   0
   4  -4  -1   12.69   17.06   0
   4   7   1   36.30   59.06   0
   5  -6   1  440.13   28.36   0
   3  -8   4  239.22   35.32   0
   4  -8   5  124.44   33.70   0
   6  -3  -1  592.90   31.80   0
   7   2  -1  396.65   35.60   0
   8  -2   0    1.32   25.73   0
   2  -8   4  313.11   39.35   0
   5  -4  -1 1927.01   42.93   0
   7  -5   1   16.17   25.22   0
   3  -6   0  939.04   34.59   0
   4  -8   4  131.68   30.78   0
   6  -6   1  197.03   27.29   0
   6  -5   0  106.20   27.78   0
   6   6   0 1216.12   81.82   0
   7  -4   0   32.14   25.74   0
   7  -2  -1    1.84   22.49   0
   8  -4   1  106.91   27.41   0
   9   1   0  395.22   39.26   0
  10   1   1  200.86   35.62   0
  10   2   1  318.84   39.93   0
  10   3   1   19.80   47.06   0
   0   3   1 1875.11   63.06   0
   1  -7   2  827.47   37.13   0
   1  -5   0 2570.58   55.26   0
   2  -4  -1   40.51   17.55   0
   3   3  -1 3790.22  120.02   0
   4  -6   0  762.53   32.11   0
   7   3  -1  696.61   47.18   0
   9   0   0   65.52   32.95   0
   3  -8   3  126.99   30.99   0
   4  -8   3  495.06   37.33   0
   4  -1  -2 1481.93   40.46   0
   5  -1  -2  143.35   21.39   0
   5   4  -1  389.57   44.67   0
   8  -3   0  392.48   28.08   0
   9   3   0   13.48   43.91   0
   2  -8   3  434.67   35.52   0
   2  -6   0 1515.12   41.58   0
   3  -5  -1  921.35   33.23   0
   4  -5  -1 1468.40   38.71   0
   4  -2  -2  531.24   26.30   0
   5  -6   0  322.39   27.90   0
   5  -2  -2 1844.61   42.81   0
   6  -4  -1  130.02   23.47   0
   8   0  -1   58.28   30.60   0
   9  -1   0  104.91   31.86   0
   2  -7   1  565.01   29.79   0
   5  -7   1  433.20   31.45   0
   5  -5  -1  228.94   26.27   0
   6   4  -1 1255.28   58.74   0
   8  -1  -1  121.21   31.16   0
   1  -2  -1  343.34   27.69   0
   4  -3  -2  201.35   21.24   0
   5  -8   3   57.54   28.81   0
   5   1  -2 1884.93   53.04   0
   7  -5   0  570.76   33.28   0
  -1  -5   2 1300.49   61.50   0
   1  -1  -1 3147.45   80.83   0
   3  -8   2  584.28   34.30   0
   3  -1  -2   52.28   16.90   0
   4  -8   2   26.96   27.13   0
   6  -6   0  199.21   28.05   0
   6  -2  -2  328.79   26.22   0
   8  -4   0  505.39   32.16   0
  -1  -6   3 1803.17   69.52   0
   1  -3  -1 4244.04   74.80   0
   3  -3  -2 1499.77   39.73   0
   6  -7   1  123.90   23.50   0
   6  -5  -1  645.49   35.52   0
   6   1  -2  124.23   26.30   0
   7  -4  -1  674.18   33.44   0
   2  -8   2  208.16   29.18   0
   4  -7   0  795.71   33.43   0
   4  -6  -1 1292.11   38.84   0
   4  -4  -2 1659.21   39.90   0
   5  -8   2  777.42   39.17   0
   6  -3  -2  346.25   27.02   0
   7   4  -1  163.98   38.30   0
   8   3  -1   78.88   39.97   0
   3  -6  -1  255.19   25.20   0
   3   0  -2 2534.73   60.62   0
   5  -7   0   39.75   21.90   0
   5  -4  -2   14.01   19.25   0
   7   0  -2  622.05   39.44   0
   8  -3  -1  439.42   32.75   0
  10   1   0   10.78   35.57   0
  -2   0   3 3726.21   83.49   0
   1  -7   1 1233.18   41.66   0
   3  -9   4   -9.93   34.83   0
   4  -8   1  673.43   36.87   0
   4   4  -1 1603.64   83.45   0
   5  -6  -1  258.90   26.93   0
   7  -6   0  338.84   31.07   0
   9   0  -1  235.02   37.57   0
  10   2   0  198.26   46.89   0
   1  -4  -1 2480.48   55.13   0
   3  -8   1    9.18   24.90   0
   5   2  -2  480.31   36.75   0
   7  -5  -1  242.17   27.80   0
   9  -1  -1  413.30   37.46   0
   9   1  -1   11.42   34.25   0
  -2  -2   3  123.35   35.62   0
   3  -9   3  546.05   37.44   0
   4  -9   3   48.90   31.09   0
   4  -5  -2  996.39   33.22   0
   6  -7   0  492.38   29.08   0
   6  -6  -1  687.66   34.04   0
   7  -3  -2  622.16   31.31   0
   8  -4  -1   17.79   22.77   0
   1  -8   2  841.53   41.00   0
   2  -8   1 1275.90   42.45   0
   2  -6  -1 1726.90   42.33   0
   5  -5  -2  448.13   28.74   0
   9  -2  -1   68.47   30.95   0
   0  -8   4  300.84   39.98   0
   7   2  -2   93.04   36.96   0
   8  -1  -2  643.37   38.57   0
   8   0  -2  440.21   38.13   0
   8   4  -1  590.78   55.33   0
   2  -9   3   24.51   32.40   0
   2  -3  -2 2429.70   51.88   0
   2  -2  -2  411.28   26.32   0
   3  -5  -2 1254.46   35.54   0
   4  -7  -1   22.42   22.25   0
   4   8   2  683.56   64.00   0
   5  -7  -1  562.85   31.60   0
   6  -5  -2  404.10   29.72   0
   7  -4  -2   16.20   22.67   0
  -1  -7   4 1194.20   65.66   0
   1   0  -1 6497.33  140.63   0
   3  -9   2  136.08   31.00   0
   3  -8   0  669.60   35.45   0
   4   2  -2 2057.28   64.04   0
   7  -6  -1  130.43   28.30   0
   8   1  -2   34.99   35.76   0
   1  -5  -1   30.17   16.18   0
   2  -4  -2 3894.14   62.27   0
   4  -6  -2  223.96   25.77   0
   5  -6  -2 1057.25   36.67   0
   5  -2  -3  676.22   30.58   0
   2  -1  -2 5359.51   86.65   0
   5  -3  -3  148.82   20.45   0
   6  -7  -1   29.67   23.72   0
   7  -5  -2  323.60   29.05   0
   0  -8   3  423.16   39.56   0
   1  -7   0  225.60   25.35   0
   3  -6  -2 1935.68   43.71   0
   4  -9   1  319.95   32.89   0
   4  -3  -3 2252.36   46.97   0
   4  -2  -3 1333.10   38.14   0
   6  -8   0  166.97   30.47   0
   6  -6  -2    5.90   26.14   0
   6  -3  -3  914.31   33.58   0
   8   2  -2  588.56   50.24   0
  10   1  -1  356.38   47.62   0
   1  -8   1   41.21   25.74   0
   2  -8   0  160.62   28.71   0
   2  -5  -2  782.58   30.65   0
   3  -9   1  496.83   34.74   0
   4  -4  -3    7.87   18.19   0
   5  -9   1  204.03   30.78   0
   5  -4  -3  906.63   30.95   0
   6   3  -2 1293.87   57.23   0
   8  -4  -2  529.17   34.17   0
   9  -1  -2   17.06   34.06   0
   4  -1  -3  106.24   19.82   0
   6  -4  -3  260.18   26.18   0
   7  -1  -3  964.27   42.38   0
   7   3  -2  351.18   43.90   0
   9  -2  -2  224.92   34.46   0
   9   0  -2  355.44   39.02   0
   1  -6  -1 1215.14   38.50   0
   4  -7  -2 1267.15   40.46   0
   5  -8  -1  391.58   28.00   0
   5  -5  -3  811.25   33.11   0
   2  -9   1  211.51   32.07   0
   4  -9   0  156.95   31.00   0
   4  -5  -3  905.89   31.77   0
   5   3  -2  306.25   38.45   0
   6  -5  -3  168.69   25.06   0
   7  -4  -3  704.24   33.33   0
   7   0  -3  202.23   33.11   0
   3  -7  -2   52.05   20.30   0
   3  -3  -3  144.03   20.00   0
   5  -9   0  578.50   35.74   0
   6  -8  -1  198.50   27.32   0
   6  -7  -2  441.47   30.33   0
  -1   1   2   10.93   16.27   0
   2  -6  -2  102.36   18.66   0
   3  -9   0  608.33   33.80   0
   3  -4  -3 2359.84   46.39   0
   3  -2  -3 1560.40   42.27   0
   4 -10   2  238.93   34.22   0
   6   1  -3 1013.50   44.70   0
   8  -1  -3   15.29   33.09   0
   3 -10   2   27.96   33.24   0
   4  -6  -3  514.38   29.07   0
   5  -6  -3   75.05   22.91   0
   7  -5  -3  353.28   27.87   0
   9   2  -2   51.41   47.88   0
   2   0  -2 1210.75   48.32   0
   6  -6  -3  853.72   36.62   0
   5  -8  -2  243.89   26.34   0
   4   3  -1   79.48   19.49   0
   8  10   2  247.28   43.94   0
   9   2   7  331.19   36.31   0
   5   0   1 2023.07   48.44   0
   6  -1   4   37.53   30.73   0
   6   8   0    4.74   35.59   0
   8   1   5    3.14   30.49   0
   9   5   3  130.76   31.35   0
   4   7  -1  630.24   42.21   0
   6   3   0 1779.58   45.83   0
   7   0   4  618.37   37.74   0
   7   3   1 1433.70   42.55   0
   9   2   6  132.91   34.87   0
   6   0   2  768.64   33.50   0
   6   1   1  947.61   36.10   0
   8   2   3  370.82   30.97   0
   4   2  -1 1732.50   45.57   0
   5  -2   4  353.70   33.77   0
   5   1   0  997.05   36.14   0
   5   4  -1  360.61   27.37   0
   5   6  -1 1122.75   44.64   0
   7  -1   7  394.19   46.65   0
   8   0   8   40.59   43.95   0
   8   3   2  616.36   37.27   0
   8   6   1  106.53   28.39   0
   8  11   2  150.11   50.09   0
   9   3   4  225.52   27.65   0
   9   4   3  402.15   33.95   0
   2   1  -1 5869.17   97.30   0
   4   0   0 4573.44   71.27   0
   6   9   0  585.88   51.21   0
   7   1   2  562.17   33.12   0
   8   8   1  466.26   43.11   0
   9   7   2    9.76   31.14   0
  -1   5   0 2474.65   85.86   0
   3   1  -1   27.18   16.92   0
   4  -3   6   62.11   39.60   0
   5   3  -1 3105.85   58.89   0
   5   7  -1  491.56   39.85   0
   5  10   0   19.58   46.14   0
   6  -1   3 1571.16   47.38   0
   6   2   0  347.71   27.40   0
   7  -1   6  224.94   41.90   0
   7   2   1   82.12   27.17   0
   7   5   0  826.43   37.80   0
   7   7   0  375.11   38.14   0
   9   6   2  341.06   30.76   0
   3   8  -1   98.31   39.84   0
   4   8  -1 1360.19   61.25   0
   7   4   0  695.13   36.78   0
   8   0   6   70.23   34.54   0
   8   9   1  214.65   40.40   0
   6  -2   6  709.44   48.59   0
   7  -1   5  264.53   37.93   0
   7   8   0  849.14   49.57   0
   8   4   1  325.26   31.88   0
   9   3   3  163.43   28.86   0
  -1   2   0 2295.04   85.69   0
   4  -3   5  791.51   49.15   0
   5  -2   3  769.37   40.10   0
   8   0   5  311.70   39.11   0
   8   1   3  139.58   29.46   0
   8   2   2   23.64   27.12   0
   2  -3   3  218.95   37.49   0
   4   1  -1 2724.54   55.37   0
   5   2  -1 2406.42   51.62   0
   5   8  -1    2.08   39.43   0
   6   0   1   15.26   20.16   0
   6   4  -1 1204.20   40.20   0
   6   6  -1   48.43   30.58   0
   6  10   0  573.52   60.70   0
   7   3   0   15.57   26.61   0
   9   1   6   48.54   32.77   0
   9   4   2   78.89   30.58   0
   5  -1   1  372.07   27.40   0
   5   0   0    4.86   19.33   0
   6  -2   5    4.42   36.75   0
   6   1   0  293.31   26.66   0
   6   7  -1  631.68   43.98   0
   7   9   0  169.64   45.10   0
   8   3   1   40.61   29.45   0
   8  10   1    6.10   42.52   0
   0  -3   6    9.51   45.13   0
   0  -3   7 2356.79  102.52   0
   7  -1   4  675.41   40.56   0
   7   0   2   58.03   24.49   0
   7   1   1  233.71   28.78   0
  -1   4   0  905.25   53.96   0
   6   3  -1   75.44   22.42   0
   8   0   4  390.45   36.02   0
   9   2   3   24.19   24.84   0
   6  -2   4  886.32   44.47   0
   8   1   2  420.97   32.04   0
   8   5   0   88.62   27.32   0
   8   7   0  265.84   38.07   0
   9   3   2   73.42   28.11   0
   9   5   1   -4.81   28.40   0
   9   8   1   13.78   34.64   0
   4  -1   0 1080.77   38.48   0
   5   1  -1  309.12   24.59   0
   6   8  -1  624.02   47.84   0
   8   8   0    8.11   38.73   0
   9   1   4   14.55   31.25   0
   2   8  -1  990.37   78.05   0
   3   0  -1 1257.15   40.86   0
   3   3  -2  985.30   40.05   0
   3   5  -2 1695.93   56.07   0
   4   5  -2 1655.01   49.78   0
   4   9  -1  298.90   47.80   0
   5  -2   2 1049.33   40.41   0
   6   2  -1 1013.52   36.68   0
   7  -1   3   22.46   30.81   0
   7   6  -1  999.79   48.33   0
   7  10   0   90.80   50.97   0
  -1   0   1 6105.16  133.26   0
   4   3  -2 1530.64   42.58   0
   5  -3   6  705.21   51.00   0
   5   9  -1  493.88   49.88   0
   7   4  -1  124.88   27.88   0
   7   7  -1  315.26   39.72   0
   8  -1   6  125.64   42.99   0
  -1  -2   4  110.05   29.91   0
  -1  -1   2  170.02   29.03   0
   2   0  -1 2354.14   62.47   0
   4   0  -1  645.15   30.93   0
   4   6  -2 2576.74   65.89   0
   5   5  -2  996.15   40.20   0
   6  -2   3  364.87   35.38   0
   7   0   1  815.05   37.06   0
   8   9   0  151.68   41.37   0
   9   0   6  251.54   38.66   0
   9   2   2  427.98   31.52   0
   6  -1   1  838.91   34.33   0
   7  -2   6   46.10   42.61   0
   7   3  -1  643.08   36.00   0
   8  -1   5  287.10   37.50   0
   3   2  -2 2666.81   57.65   0
   5  -1   0 1411.11   41.86   0
   5   3  -2  320.27   25.13   0
   5   6  -2    5.03   28.05   0
   6   9  -1  122.51   47.12   0
   7   8  -1   17.74   39.70   0
   8   1   1  476.58   33.37   0
   9   0   5   37.54   33.07   0
   2   4  -2   18.55   23.72   0
   3   6  -2   67.13   30.70   0
   6   1  -1 1395.76   40.82   0
   7  -2   5  910.68   51.99   0
   9   7   0  129.97   37.40   0
   1  -2   1   57.44   28.68   0
   5   0  -1 2316.89   49.59   0
   8  -1   4   24.05   34.77   0
   8   2   0  153.41   32.35   0
   8  10   0  252.21   55.10   0
   4   7  -2  153.41   38.12   0
   5   2  -2  493.68   28.11   0
   5   7  -2  732.98   46.72   0
   6  -2   2  251.56   33.02   0
   6   6  -2  873.72   44.95   0
   7  -2   4   65.31   35.38   0
   7   2  -1  373.99   31.24   0
   8   6  -1   13.97   31.77   0
   9   8   0  191.30   38.26   0
   2   5  -2  118.21   30.92   0
   6   3  -2 1220.80   39.42   0
   7   9  -1  479.52   54.95   0
   8   7  -1  216.52   39.24   0
   9   1   2  212.60   31.57   0
   9   2   1   80.58   27.68   0
   9   4   0  286.55   31.43   0
   2   2  -2 5003.48   90.65   0
   3   1  -2 6843.74   89.95   0
   4   1  -2   86.43   18.80   0
   5  -3   3 1381.02   51.05   0
   7   0   0  146.71   28.03   0
   8  -1   3  458.24   38.56   0
   2  -3   2 2247.50   72.94   0
   6  -1   0 1291.72   40.28   0
   6   7  -2  209.91   38.34   0
   8   0   1    4.95   26.25   0
   8   3  -1   67.68   28.48   0
   9   3   0   21.35   28.81   0
   5   1  -2 1853.32   44.92   0
   6   2  -2 1629.18   43.45   0
   7  -2   3  424.89   37.71   0
   7   1  -1   31.22   26.44   0
   7   4  -2  845.87   39.42   0
   8   1   0  130.13   28.85   0
   4  -2   0    4.07   17.05   0
   7   6  -2  130.33   33.75   0
   5   8  -2  529.85   49.03   0
   6  -3   4  712.07   49.49   0
   7   3  -2  334.76   30.12   0
   8  -1   2   85.43   33.16   0
   8   2  -1  396.54   35.71   0
   8   9  -1   24.01   50.51   0
   9  -1   5   23.72   36.04   0
   9   1   1  183.77   27.81   0
   5  -3   2    9.64   27.52   0
   5  -1  -1 2111.85   48.46   0
   6   8  -2   97.06   42.45   0
   7   7  -2  517.64   44.87   0
   8  -2   5   10.82   41.41   0
   9   6  -1  311.76   38.63   0
   9   7  -1   60.78   37.03   0
   4   0  -2 1839.69   45.58   0
   4   8  -2  272.72   44.14   0
   5  -2   0 1612.18   44.06   0
   6   1  -2   97.81   22.99   0
   7  -2   2  500.68   36.86   0
   9  -1   4  277.76   38.33   0
   9   4  -1   46.05   26.37   0
   2  -2   0 1609.42   53.88   0
   2   1  -2   92.01   19.79   0
   6  -3   3  174.89   35.30   0
   7  -1   0  470.16   31.26   0
   7   0  -1  902.00   37.67   0
   7   2  -2   70.46   26.76   0
   8  -2   4  439.80   39.75   0
   1   0  -1 6781.36  130.92   0
   2  -1  -1 1164.60   44.84   0
   2   6  -2 1622.85   74.14   0
   3   0  -2 2512.87   56.14   0
   5   0  -2  526.56   26.71   0
   5   3  -3  917.21   35.66   0
   7   8  -2  353.51   49.43   0
   8   1  -1  755.27   38.17   0
   8   4  -2    7.01   29.87   0
   8   6  -2  509.41   41.41   0
   9   3  -1  429.76   34.36   0
   4   4  -3 1801.73   51.42   0
   5   5  -3 1247.69   47.25   0
   6  -1  -1   95.16   22.95   0
   8   7  -2   21.71   38.91   0
   9  -1   3   -5.40   32.90   0
   9   1   0  340.86   32.56   0
   4   5  -3  773.00   41.91   0
   6   3  -3  606.00   32.97   0
   6   5  -3   33.72   31.23   0
   7  -3   5  161.12   47.18   0
   7  -2   1   45.22   30.39   0
   7   1  -2 1045.74   40.22   0
   8  -2   3  251.40   38.36   0
   8   3  -2  465.31   32.44   0
  -1  -1   3  213.91   31.03   0
  -1   1   1 3192.87   91.85   0
   3  -4   5  415.51   60.57   0
   4  -4   5  988.24   64.68   0
   4   2  -3  361.58   24.92   0
   5  -3   1 1343.22   45.16   0
   6  -3   2 1090.33   46.73   0
   6   0  -2  543.01   29.66   0
   6   9  -2  726.42   60.61   0
   7  -3   4  292.56   46.91   0
   9   2  -1  355.10   35.48   0
   6   6  -3  241.30   38.08   0
   8   2  -2  572.75   35.73   0
   8   8  -2  115.46   44.64   0
   9  -1   2  324.73   39.43   0
   3  -4   4 1352.84   69.74   0
   4  -4   4   13.86   35.33   0
   4  -2  -1 3344.68   61.71   0
   6   2  -3   17.90   22.50   0
   7   5  -3  646.82   41.80   0
   7   9  -2    9.49   50.58   0
   8  -2   2  179.82   38.12   0
   8   0  -1   66.98   28.13   0
   3   4  -3   82.12   25.30   0
   4   1  -3 2309.19   50.54   0
   5  -2  -1  148.33   22.17   0
   5  -1  -2  143.15   22.49   0
   5   1  -3  403.65   26.90   0
   7  -3   3  618.18   46.02   0
   7   3  -3  378.12   30.33   0
   8  -1   0  307.60   32.80   0
   9   6  -2   11.13   35.48   0
   1  -3   7    6.16   60.94   0
   3  -2  -1  154.03   21.50   0
   3   2  -3 1079.76   39.60   0
   4   6  -3  355.91   38.35   0
   6  -3   1  104.58   32.34   0
   7   0  -2  549.32   35.14   0
   7   6  -3  399.68   41.66   0
   9   0   0   61.37   25.53   0
   9   1  -1    4.36   27.75   0
   2   0  -2 1249.98   44.82   0
   4  -4   3 1460.85   59.52   0
   6   1  -3  930.05   34.84   0
   6   7  -3  773.71   53.73   0
   7   2  -3  602.98   35.11   0
   8   1  -2   22.41   29.87   0
   9  -2   4   81.20   39.85   0
   9  -1   1  100.87   33.95   0
   9   3  -2  149.82   28.96   0
  -1   5   1   31.43   26.94   0
   3  -1  -2   26.56   18.08   0
   5   7  -3   15.10   38.23   0
   6  -2  -1 1891.07   47.21   0
   6  -1  -2 1918.11   46.53   0
   7  -3   2  -13.07   33.60   0
   8  -2   1  436.83   39.81   0
   8   5  -3  183.98   37.21   0
  -1   0   2 2994.76   85.85   0
   3  -4   3   89.85   35.83   0
   7   7  -3   31.21   40.92   0
   8   3  -3  380.64   33.77   0
   8   6  -3  189.72   41.58   0
   9  -2   3  196.97   40.78   0
   9   2  -2   55.43   29.54   0
   3   1  -3  389.69   26.49   0
   4   0  -3  593.97   29.19   0
   7   1  -3  249.89   29.90   0
   8  -1  -1  123.74   28.06   0
   6  -3   0 1269.66   46.75   0
   6   0  -3 1047.75   37.69   0
   7  -3   1  621.51   41.44   0
   8  -3   4  339.84   49.35   0
   8   2  -3    7.17   26.25   0
  -1   2   1  322.58   33.28   0
   5  -4   2  979.18   48.34   0
   7  -2  -1   26.78   23.48   0
   7  -1  -2   -3.05   25.83   0
   8  -3   3   17.37   41.76   0
   9  -2   2  300.37   37.66   0
   0   8   1  828.91   60.80   0
   4   7  -3  645.36   46.11   0
   6  -4   3  772.02   52.56   0
   6   8  -3  388.42   52.06   0
   7   8  -3  146.89   51.22   0
   9   5  -3  363.65   40.97   0
   4  -2  -2  569.70   29.97   0
   5   4  -4 1174.38   44.39   0
   6   4  -4  426.71   35.20   0
   7   0  -3  163.11   31.17   0
   8   1  -3  507.12   35.67   0
  -1   3   1 4254.75   97.62   0
   2  -2  -1 3847.92   76.75   0
   3   0  -3  584.30   30.22   0
   5  -1  -3 1459.15   41.66   0
   5   2  -4   33.45   19.87   0
   5   8  -3  503.87   53.27   0
   6  -2  -2  302.81   29.92   0
   6   2  -4 1620.03   44.17   0
   6   5  -4  933.43   45.13   0
   7   4  -4  609.26   40.41   0
   8  -3   2  357.37   39.25   0
   8   8  -3  121.80   54.93   0
   9  -2   1   48.81   33.73   0
   9   3  -3  131.86   30.95   0
   1   2  -2   30.39   23.66   0
   3   6  -3 1078.04   55.43   0
   4  -3  -1  799.34   33.77   0
   5   5  -4   44.82   30.73   0
   6  -4   2  535.77   45.60   0
   6  -1  -3   83.95   24.35   0
   7  -3   0   52.23   30.73   0
   7   5  -4   -1.20   33.61   0
   8  -1  -2  573.36   36.05   0
   4  -4   1  808.75   40.89   0
   4  -1  -3  102.48   18.26   0
   4   2  -4  778.38   33.80   0
   5  -4   1  445.60   35.96   0
   5   1  -4  834.06   33.44   0
   6   1  -4  580.35   32.07   0
   7   2  -4   18.44   23.94   0
   9  -1  -1  382.58   36.01   0
   2  -1  -2 5485.87   87.67   0
   2   7  -2  529.88   72.93   0
   3  -2  -2 3313.54   63.01   0
   4   4  -4  102.61   27.39   0
   7  -2  -2  616.03   35.46   0
   7   6  -4  282.70   43.92   0
   8  -3   1   35.00   34.02   0
   8   0  -3  802.66   41.88   0
   8   4  -4   63.41   34.42   0
   2   2  -3  140.39   24.22   0
   4   1  -4  646.76   31.38   0
   6  -4   1  476.92   40.66   0
   7  -4   3  127.98   44.95   0
   7  -1  -3  920.26   39.28   0
   7   1  -4  288.29   31.26   0
   8   5  -4  354.96   42.06   0
   9  -2   0  489.16   41.32   0
   9   1  -3  194.69   33.32   0
   1  -3   2   57.58   45.92   0
   3  -3  -1  570.07   31.15   0
   5   0  -4 1978.72   46.56   0
   5   6  -4  358.00   43.26   0
   6   0  -4  123.64   25.16   0
   7  -4   2  372.11   48.86   0
   8   2  -4  346.44   31.39   0
   2  -4   4   38.92   67.71   0
   5  -4   0  466.87   35.96   0
   8  -3   0  397.70   40.47   0
   8   6  -4  213.42   41.13   0
   2   1  -3 4808.06   83.48   0
   2   4  -3 2279.56   71.83   0
   3  -1  -3 2928.71   58.52   0
   4  -4   0 1125.03   43.50   0
   5  -2  -3  702.45   33.14   0
   7   0  -4  802.74   37.54   0
   7   7  -4  415.13   55.60   0
   8   1  -4  343.17   32.00   0
   9  -3   2   30.78   38.14   0
   9  -1  -2   12.93   27.59   0
   1   1  -2  181.20   28.53   0
   4   0  -4  174.02   22.11   0
   6  -4   0 1066.92   47.11   0
   6  -3  -2  380.38   31.48   0
   6  -2  -3  213.76   27.99   0
   6   7  -4    7.38   44.11   0
   7  -4   1  547.35   43.19   0
   8  -2  -2  247.48   30.93   0
   8  -1  -3   44.70   28.76   0
   9   0  -3   63.06   31.22   0
  -1   1   2    8.62   14.86   0
   4  -3  -2  179.04   22.19   0
   8   7  -4   -9.37   48.28   0
   9  -3   1  281.63   39.58   0
   9   2  -4   25.07   28.57   0
   0  -2   5  447.19   53.14   0
   3   3  -4  647.05   36.61   0
   5  -1  -4   92.14   22.61   0
   6  -1  -4  912.92   38.06   0
   7  -2  -3  597.80   35.54   0
   8  -3  -1  381.92   39.45   0
   8   0  -4   10.79   32.00   0
   6   3  -5  861.77   40.73   0
   7  -4   0   19.96   34.46   0
   8  -4   2  145.16   45.61   0
   3   1  -4 1805.43   47.33   0
   5  -4  -1 1958.66   51.21   0
   5   7  -4  646.26   49.94   0
   6   1  -5  350.30   29.56   0
   6   4  -5  357.13   35.29   0
   7  -1  -4  216.95   30.91   0
   7   2  -5  556.86   34.89   0
   7   4  -5  290.60   35.33   0
   9  -3   0  133.88   35.11   0
   9   1  -4  160.63   31.98   0
   1  -3   5 1162.95  104.85   0
   2   0  -3 3881.32   72.98   0
   3  -4   0  615.78   36.10   0
   3   4  -4 1653.64   54.74   0
   3   7  -3   97.50   44.31   0
   4  -1  -4 1578.63   42.30   0
   4   6  -4  398.23   41.58   0
   5   3  -5   99.43   25.25   0
   6  -4  -1  155.99   31.52   0
   7   5  -5  567.97   44.27   0
   8  -4   1  108.30   36.04   0
   8  -2  -3  332.09   32.13   0
   8   4  -5  226.17   38.64   0
   9  -1  -3  275.42   33.48   0
   5   1  -5 1292.40   39.93   0
   5   4  -5  454.51   36.46   0
   6   5  -5   62.85   36.80   0
   8   2  -5  100.06   31.00   0
   2  -4   2  329.87   44.39   0
   2   5  -3  714.80   51.34   0
   3  -3  -2 1475.13   43.89   0
   3  -2  -3 1582.83   44.30   0
   3   0  -4 2234.96   51.10   0
   5  -5   3  347.57   47.61   0
   5  -3  -3  180.04   24.41   0
   6  -3  -3  858.04   36.61   0
   6   0  -5 1334.44   41.73   0
   7  -4  -1  655.19   40.67   0
   8  -1  -4  452.98   35.94   0
   8   5  -5   11.49   37.28   0
   9   0  -4  333.90   36.68   0
  -1   2   2 4244.57   91.70   0
   2  -2  -2  439.79   28.73   0
   5  -2  -4  531.18   31.14   0
   5   0  -5   23.32   20.62   0
   7   0  -5   16.11   26.69   0
   8  -4   0  482.54   41.76   0
   8   1  -5   84.34   26.30   0
   9  -3  -1  175.72   34.90   0
   0   7   1   54.28   33.04   0
   7  -3  -3    3.49   25.42   0
   7  -2  -4  206.63   30.25   0
   8   6  -5  274.60   47.67   0
  -1   3   2 2713.01   72.86   0
   2  -3  -1 1982.76   57.58   0
   4  -5   2  395.84   43.62   0
   4  -5   3 1070.34   62.15   0
   4  -3  -3 2224.41   50.22   0
   4   1  -5  571.08   30.28   0
   4   3  -5 1622.40   49.08   0
   5   5  -5  997.00   49.73   0
   6   6  -5  365.72   48.13   0
   8   0  -5  413.26   33.36   0
   0   5   0   31.25   30.38   0
   3   5  -4  194.73   36.52   0
   4  -2  -4 2722.01   53.66   0
   6  -1  -5  587.78   34.28   0
   7  -5   2  366.19   52.74   0
   7  -1  -5  787.65   40.00   0
   8  -4  -1   12.27   35.42   0
   2  -1  -3  490.55   29.36   0
   3  -1  -4   31.90   18.53   0
   7  -4  -2    0.92   31.22   0
   8  -2  -4  476.07   33.92   0
   4   0  -5 2264.72   49.90   0
   4   4  -5 1146.92   46.44   0
   5  -5   0 1773.22   54.39   0
   6  -5   0   94.66   36.77   0
   7  -5   1    0.61   44.56   0
   2  -4   1 3713.87   95.24   0
   4   7  -4    0.89   41.69   0
   6  -3  -4    1.37   26.28   0
   7   3  -6  545.41   40.80   0
   8  -1  -5  186.85   32.86   0
   5   6  -5  253.61   44.16   0
   6  -2  -5  185.86   29.31   0
   6   1  -6  471.29   31.69   0
   6   3  -6   16.04   30.98   0
   7  -5   0  550.94   47.54   0
   7  -3  -4  941.99   38.48   0
   7   1  -6   42.80   25.44   0
   7   4  -6  108.47   37.07   0
   8  -4  -2  573.88   42.65   0
   8   3  -6   45.70   34.79   0
   4  -5   0    2.50   27.07   0
   4  -1  -5  339.29   25.91   0
   5  -4  -3  930.40   35.96   0
   6  -5  -1  644.15   41.49   0
   7  -2  -5  594.91   36.21   0
   8   1  -6  479.73   35.77   0
   8   4  -6  283.59   41.14   0
   3  -3  -3  145.37   21.54   0
   5  -5  -1  229.59   31.57   0
   5  -2  -5 1700.55   44.86   0
   6   0  -6  170.31   27.25   0
   6   4  -6  541.70   41.71   0
   7   0  -6  957.98   36.78   0
   8  -5   1  288.91   52.76   0
   8  -3  -4   22.81   25.84   0
   1  -3   4 1288.11  128.51   0
   4  -3  -4   -1.68   19.70   0
   4   5  -5   24.12   33.27   0
   7  -5  -1  240.44   40.29   0
   7   5  -6   39.52   37.41   0
   8  -2  -5   13.45   28.23   0
   8   0  -6   55.96   26.25   0
   8   5  -6  201.56   42.02   0
   3  -2  -4  704.20   31.54   0
   8  -5   0   23.53   38.59   0
   8  -4  -3  156.62   34.76   0
   1  -2  -1  352.16   33.26   0
   2   1  -4 1119.64   43.38   0
   3  -5   2 1515.34   69.54   0
   3  -4  -2  119.73   22.10   0
   3   1  -5 1813.18   47.23   0
   4  -4  -3    1.71   18.21   0
   6  -5  -2  412.70   37.85   0
   6  -1  -6  445.76   32.59   0
   6   5  -6  529.74   49.17   0
   2  -3  -2 2462.82   59.24   0
   2  -2  -3 4730.16   77.54   0
   3  -5   3  600.82   64.01   0
   4  -2  -5  180.78   22.86   0
   5  -5  -2  428.94   34.37   0
   5   4  -6  346.94   38.67   0
   6  -4  -4  622.23   35.12   0
   7  -5  -2  332.87   38.70   0
   7  -3  -5   38.45   29.23   0
   8  -5  -1  288.97   39.66   0
   8  -1  -6   74.32   29.52   0
   2   0  -4  986.98   38.70   0
   2   3  -4 1668.33   57.92   0
   3  -5   1  201.50   36.12   0
   3   0  -5   53.43   18.39   0
   3   3  -5  232.93   28.89   0
   3   6  -4  566.28   47.93   0
   5  -4  -4  312.94   27.54   0
   5  -1  -6  746.44   35.17   0
   7  -4  -4  498.72   35.84   0
   7   6  -6  308.98   52.13   0
   8   6  -6   12.92   47.97   0
   1  -1  -2    6.68   15.62   0
   6  -2  -6 1289.78   43.43   0
   7  -2  -6    2.76   29.85   0
   8  -3  -5  430.10   32.64   0
   4   2  -6 1350.60   44.87   0
   6  -5  -3  184.07   33.20   0
   7   2  -7   91.54   35.06   0
   8  -5  -2  284.83   40.39   0
   8   2  -7  465.56   39.14   0
   0   6   1  557.18   47.11   0
   2   6  -3   66.77   48.20   0
   3  -1  -5 2088.19   48.30   0
   4   0  -6  137.15   21.93   0
   7   0  -7  213.83   29.38   0
   7   3  -7  129.20   38.32   0
   8  -2  -6  346.24   34.54   0
   8   3  -7  294.26   39.08   0
   3  -3  -4 1775.37   44.68   0
   4   3  -6    6.61   26.97   0
   4   6  -5  516.95   48.17   0
   5  -2  -6  123.11   23.64   0
   5   5  -6   69.72   39.65   0
   6   0  -7  422.39   31.95   0
   6   2  -7  332.30   34.79   0
   6   6  -6   49.05   46.50   0
   8   0  -7  262.37   30.51   0
   2  -1  -4 5061.39   78.60   0
   3   4  -5  641.08   41.68   0
   4  -4  -4 2033.57   47.43   0
   4  -3  -5 1800.50   45.02   0
   4  -1  -6 1230.22   39.89   0
   6  -6   0  225.59   45.27   0
   6  -4  -5  445.85   33.09   0
   6   3  -7  521.78   40.53   0
   7  -4  -5  161.46   27.72   0
   7   4  -7  459.09   42.56   0
   8  -5  -3   34.19   36.85   0
   8   4  -7   -3.90   37.85   0
   3  -5   4  548.09   86.78   0
   3  -4  -3 2338.22   51.74   0
   6  -3  -6  213.85   30.77   0
   6  -1  -7  941.17   40.80   0
   7  -6   0  371.45   49.14   0
   7  -3  -6  407.28   35.05   0
   7  -1  -7   38.71   25.82   0
   8  -1  -7  353.22   35.25   0
   0  -1   5 1769.54   73.38   0
   3  -5  -1  889.12   43.08   0
   5  -4  -5  822.30   37.63   0
   7  -6  -1  154.58   43.09   0
   8  -4  -5  376.73   38.90   0
   8  -3  -6  192.25   32.94   0
   2   4  -4   39.28   29.53   0
   3  -2  -5 2109.55   47.10   0
   4   4  -6  540.37   42.50   0
   5  -6  -1  238.30   38.03   0
   5  -3  -6  772.28   36.75   0
   5   0  -7  384.63   29.60   0
   5   2  -7  659.38   40.28   0
   6   4  -7   83.24   38.15   0
   1   1  -3  210.02   28.86   0
   2  -3  -3 4157.60   72.38   0
   6  -6  -2   10.86   32.58   0
   6  -2  -7  153.60   28.35   0
   7  -2  -7  562.62   36.24   0
   7   5  -7  294.34   49.19   0
   8  -2  -7   82.36   32.17   0
   5  -1  -7   27.59   24.14   0
   5   3  -7  100.55   32.00   0
   7  -6  -2  467.47   42.65   0
   8  -6  -1  255.60   49.63   0
   2  -2  -4  836.26   35.19   0
   5  -6  -2 1007.09   44.59   0
   5   6  -6  614.34   53.11   0
   6  -4  -6  203.39   30.79   0
   7  -4  -6  699.07   36.29   0
   1   0  -3 2889.78   73.13   0
   4  -6   1  109.56   38.40   0
   4  -4  -5 1973.33   46.72   0
   5  -2  -7 1105.21   40.33   0
   6  -6  -3  868.34   44.17   0
   6  -5  -5   13.83   26.77   0
   7  -3  -7  449.56   35.55   0
   7   1  -8   80.47   32.36   0
   8  -6  -2    4.75   37.91   0
   8  -4  -6    1.21   27.60   0
   3  -4  -4  955.14   35.62   0
   3  -3  -5  437.88   26.65   0
   3   0  -6 2336.21   50.85   0
   4  -6   2  545.27   58.38   0
   4  -3  -6  854.38   34.13   0
   6  -3  -7  143.05   32.61   0
   6   5  -7  239.59   48.15   0
   7  -6  -3   14.61   34.22   0
   7   2  -8  500.48   39.93   0
   1  -2  -2 4290.59   88.87   0
   3   2  -6  371.81   31.32   0
   3   5  -5 1146.32   54.89   0
   4  -6  -1 1226.82   48.80   0
   4  -5  -4 1520.34   42.14   0
   4   0  -7 1135.42   39.49   0
   5  -6  -3   69.49   29.94   0
   5  -4  -6 1158.49   41.08   0
   5   4  -7  563.22   46.62   0
   6   1  -8  692.20   41.69   0
   7  -1  -8  511.79   31.81   0
   7   3  -8  349.52   39.94   0
   0  -1   2  192.77   44.02   0
   3  -1  -6 2588.89   52.73   0
   6  -1  -8   29.92   25.93   0
   6   2  -8   42.09   33.35   0
   8  -6  -3  227.92   37.83   0
   0  -1   3 2914.88  106.77   0
   2   0  -5 3755.69   67.94   0
   4  -6  -2  238.05   32.26   0
   4  -1  -7 1064.34   36.46   0
   5  -3  -7  554.69   33.90   0
   6  -6  -4  104.04   32.67   0
   7  -6  -4  629.46   44.51   0
   7  -2  -8  248.98   29.74   0
   0   5   1 4532.86  105.67   0
   6   3  -8  167.57   39.57   0
   7  -5  -6  159.52   31.26   0
   7  -4  -7  -14.77   28.46   0
   7   4  -8    4.83   45.80   0
   1  -1  -3 3886.15   80.37   0
   2  -1  -5 1558.66   44.88   0
   2   2  -5   38.11   23.15   0
   3  -2  -6  424.83   27.27   0
   4  -2  -7   34.24   20.45   0
   5  -6  -4  443.30   34.96   0
   6  -5  -6  947.57   37.98   0
   6  -2  -8  460.12   33.53   0
   1  -2   6  432.55   55.39   0
   2  -3  -4  245.88   23.82   0
   4  -5  -5   11.46   22.59   0
   4  -4  -6   16.41   20.82   0
   5  -1  -8  860.72   35.95   0
   5   1  -8  125.66   29.80   0
   7  -3  -8   15.15   29.26   0
   2  -4  -3   26.60   19.51   0
   3  -4  -5  677.96   31.61   0
   4  -6  -3  483.47   32.61   0
   5  -5  -6  110.74   25.99   0
   5   2  -8  704.42   40.35   0
   5   5  -7  317.89   46.34   0
   7  -6  -5  125.91   35.18   0
   5  -4  -7   27.39   25.38   0
   5  -2  -8  293.40   30.30   0
   6  -7  -1   20.04   45.24   0
   6   4  -8  482.30   50.72   0
   7  -7  -2   85.71   45.68   0
   2  -2  -5  795.23   33.47   0
   3  -5  -4 1294.37   41.06   0
   4  -3  -7  889.30   34.42   0
   6  -7  -2  418.22   47.52   0
   7  -5  -7  194.46   30.75   0
   7   0  -9  307.39   34.56   0
   7   1  -9  286.56   36.53   0
   2  -5   0   17.59   31.37   0
   6  -7  -3  185.75   39.66   0
   6  -5  -7  343.33   31.72   0
   7  -7  -3  223.68   38.67   0
   7  -4  -8  382.30   35.85   0
   7   2  -9   10.54   33.10   0
   3  -6   0  919.66   54.47   0
   5  -7  -2  176.17   40.05   0
   5  -3  -8  270.28   29.96   0
   5   3  -8  280.57   38.61   0
   6   0  -9  182.33   31.08   0
   7  -2  -9  160.75   28.35   0
   3   4  -6  383.28   40.33   0
   4   4  -7   89.68   37.31   0
   6  -4  -8   73.94   30.70   0
   6   1  -9  118.18   34.22   0
   7  -7  -4  321.15   39.88   0
   1  -2  -3  254.29   25.35   0
   3  -6  -2 1964.98   57.46   0
   3  -1  -7  705.58   30.88   0
   4  -5  -6 1754.24   44.94   0
   4  -4  -7 1562.06   41.82   0
   4  -1  -8   25.98   22.46   0
   5  -7  -3  523.19   40.15   0
   5  -5  -7  563.79   34.02   0
   6  -7  -4  239.27   37.44   0
   6   2  -9  625.82   44.72   0
   7   3  -9  224.79   41.86   0
   3   1  -7 2004.60   50.80   0
   4   1  -8 1228.27   45.43   0
   7  -3  -9  423.69   34.30   0
   1  -3  -2 2735.94   69.82   0
   2  -4  -4 1507.47   43.98   0
   2  -3  -5 3570.33   62.55   0
   3  -5  -5 1010.86   37.48   0
   3  -4  -6 1474.39   40.97   0
   4  -2  -8 1013.86   37.07   0
   5  -6  -6  347.45   28.86   0
   5  -4  -8  503.94   35.09   0
   6  -3  -9   -6.40   25.73   0
   7  -7  -5   41.32   35.90   0
   7  -5  -8  325.83   35.23   0
   3  -6  -3   53.30   26.76   0
   5  -7  -4  651.78   39.19   0
   5   0  -9  955.34   41.13   0
   5   4  -8   16.08   41.11   0
   6  -7  -5  663.30   41.60   0
   6  -5  -8  242.22   31.62   0
   0   0   4 2004.02   71.04   0
   1   0  -4 2142.30   58.73   0
   2  -1  -6  762.21   32.73   0
   2   0  -6  880.59   35.54   0
   3   2  -7  496.03   33.55   0
   4  -3  -8 1247.70   40.35   0
   4   2  -8  207.55   32.51   0
   5  -2  -9  416.00   30.56   0
   5   1  -9  519.69   38.24   0
   6  -6  -7   75.61   28.70   0
   6   3  -9  217.11   42.81   0
   7  -4  -9  173.15   34.13   0
   3  -3  -7  680.47   30.89   0
   7   0 -10    4.63   30.96   0
   1  -1  -4  133.23   20.68   0
   4  -5  -7  270.72   28.50   0
   5  -3  -9  895.06   38.08   0
   6  -4  -9  565.17   35.85   0
   7  -7  -6  370.51   36.65   0
  -5  -3  11  -35.84   36.35   0
  -4   0  11    2.53   30.54   0
  -3 -12   0  307.68   31.11   0
  -3   0  10   85.72   26.32   0
  -3   1  10  763.36   38.61   0
  -3   4   9  365.16   45.10   0
  -1  -4   5  592.28   25.47   0
  -1  -2   6  449.74   24.07   0
   0  -4   1 1523.77   42.08   0
  -3 -13  -2  244.85   32.86   0
  -2 -11  -1  444.81   31.51   0
  -2  -8   4  502.58   29.20   0
  -2  -7   5  785.84   33.09   0
  -1  -9  -1  445.13   29.06   0
  -1  -8   1    5.39   17.62   0
  -1   3   0 2690.54   70.33   0
   0  -5   0   38.03   17.22   0
   0  -3   2 5678.80   77.83   0
  -4  -4  10  489.48   31.72   0
  -3  -8   6   -0.30   23.14   0
  -3  -1  10  538.08   32.22   0
  -3   2  10  803.53   40.91   0
  -2  -6   6   87.65   20.44   0
  -2   3   8  718.65   43.28   0
  -3  -9   5  271.21   24.75   0
  -3  -7   7  331.85   26.45   0
  -2 -12  -4  264.97   38.19   0
  -2  -9   3   10.89   20.67   0
  -2  -5   7  289.82   24.93   0
  -2  -3   8  227.05   22.29   0
  -1  -3   6 2360.36   45.00   0
  -5  -1  12  326.94   40.17   0
  -4  -2  11  569.96   33.64   0
  -3 -12   1  151.35   29.44   0
  -3 -10   4  381.81   26.91   0
  -2 -12  -3  553.55   40.54   0
  -2 -11   0  265.23   30.21   0
  -1  -9  -7 1434.78   78.95   0
  -1  -7   3   16.54   20.59   0
  -1  -6   4  299.58   21.66   0
   0   0   2 3181.92   88.96   0
  -3 -13  -1  363.27   33.28   0
  -3  -6   8  393.30   25.82   0
  -3  -2  10  938.12   35.04   0
  -2   0   9  708.81   33.49   0
  -2   1   9 1786.58   47.51   0
   0  -5   1 3029.13   54.88   0
   0  -4   2  269.34   20.90   0
   0  -1   3 2931.29   62.37   0
  -3 -11   3  170.17   27.57   0
  -3   3  10  138.05   33.61   0
  -2  -4   8 1255.54   36.55   0
  -2  -1   9   92.90   22.92   0
  -1 -10  -5   15.37   30.37   0
  -1 -10  -3  517.07   34.78   0
  -1  -8   2  909.19   32.98   0
  -1  -1   7 1173.58   34.72   0
  -1   3   1 4148.50   96.68   0
   0  -3   3 1887.09   44.27   0
  -5  -2  12  208.33   34.00   0
  -4  -5  10   24.21   24.76   0
  -4  -3  11   18.98   26.86   0
  -3 -14  -4   -2.14   36.48   0
  -2 -12  -2   60.21   30.25   0
  -2  -8   5  206.94   26.02   0
  -2  -7   6  348.55   28.50   0
  -1 -10  -2   78.81   29.32   0
  -1  -4   6  922.20   31.33   0
  -1   3   5    6.46   37.48   0
   0  -6   0 1728.91   43.44   0
  -3  -3  10  215.89   26.87   0
  -2 -11   1  542.06   33.86   0
  -2  -9   4  759.03   32.05   0
  -2  -6   7  755.35   33.05   0
  -1  -2   7 1110.28   33.06   0
  -3 -14  -3  269.00   41.10   0
  -3 -13   0   11.32   26.79   0
  -3  -9   6  273.19   27.67   0
  -2   2   9  160.85   27.49   0
   0  -5   2 1749.65   41.25   0
   0  -4   3 2536.93   48.45   0
   0   0   3  957.55   43.32   0
  -3  -7   8   15.61   23.11   0
  -2 -12  -1  782.15   39.85   0
  -2 -10   3  433.80   28.56   0
  -1 -10  -6 1327.41   58.67   0
  -1  -8   3  464.60   28.70   0
  -1  -6   5  306.89   24.75   0
  -1  -3   7  101.62   18.83   0
   0  -6  -4   46.71   29.69   0
   0  -6   1  474.29   26.93   0
   0  -2   4 2943.42   54.15   0
  -4   0  12  363.89   39.29   0
  -3 -14  -2   37.25   32.60   0
  -3  -4  10  114.57   26.96   0
  -3   0  11  966.63   41.33   0
  -2  -5   8  386.12   25.88   0
  -1  -5   6   25.80   21.03   0
   0  -1   4  873.93   33.92   0
  -4  -1  12   41.76   33.52   0
  -4   1  12  318.77   38.72   0
  -3  -6   9  145.66   26.26   0
  -3  -1  11  110.89   28.36   0
  -3   1  11  507.15   38.25   0
   0  -3   4 1092.38   33.81   0
  -2 -13  -4   12.23   38.36   0
  -2 -12   0  116.43   31.65   0
  -2  -8   6  519.31   30.96   0
  -1 -10   0    8.20   25.18   0
  -1  -9   2  140.78   23.03   0
  -1  -4  -7  276.62   43.53   0
  -1   2  -1   81.24   21.23   0
   0  -5   3  901.75   31.42   0
  -4  -2  12  125.67   29.49   0
  -3  -2  11  117.35   28.21   0
  -3   2  11  150.24   33.21   0
  -2 -13  -3  462.27   42.24   0
  -2  -9   5   91.84   23.38   0
  -1  -4   7 1020.10   34.22   0
  -1   2   7 1629.99   52.72   0
   0  -6   2 2223.27   45.78   0
   0  -4   4   99.47   18.30   0
  -2 -10   4   13.87   20.26   0
  -2  -1  10  493.33   31.06   0
  -2   0  10 1248.49   41.78   0
  -1 -11  -3  776.80   42.28   0
  -1  -7   5   11.66   22.19   0
  -1  -2   8 1300.83   36.62   0
   0   0   4 1927.65   52.80   0
  -3  -3  11  506.17   33.76   0
  -2 -13  -2  247.04   33.77   0
  -2  -6   8   38.49   20.98   0
  -2   1  10  182.16   26.53   0
  -2   3   9   82.71   30.55   0
  -1 -11  -2  275.79   33.98   0
  -1  -8   4  253.15   25.25   0
  -1  -6   6  524.96   28.40   0
   0  -7   1  492.20   26.84   0
   0  -2   5  411.12   23.88   0
   0  -1   5 1711.52   43.44   0
  -2  -2  10   50.88   23.55   0
  -1 -11  -5  851.81   45.62   0
  -1  -9   3  542.76   29.27   0
  -1  -5   7  699.34   30.45   0
  -1   1   8 2325.74   53.05   0
   0  -8  -2 1195.54   42.97   0
   0  -7  -4 2241.04   68.49   0
   0  -3   5 1755.90   40.46   0
  -3   4  10  587.28   53.17   0
  -2  -5   9  450.96   28.29   0
  -1 -11  -1  436.98   34.32   0
  -1  -3   8 1564.33   38.78   0
   0  -8  -1  858.54   35.37   0
   0  -6   3  583.51   27.09   0
   0  -5   4 2812.78   49.32   0
  -2 -13  -1   39.62   30.18   0
  -2  -9   6  176.57   28.52   0
  -2  -8   7   16.21   26.68   0
  -2  -3  10  414.14   29.01   0
   0  -7   2  481.87   26.90   0
  -3  -4  11  359.42   30.38   0
  -2  -7   8  601.42   31.65   0
  -2   2  10  370.51   33.46   0
  -1 -10  -7   28.71   41.46   0
  -1  -4   8  158.52   22.35   0
   0   0   5 6149.07   85.02   0
  -3   3  11 1095.55   53.39   0
  -2   4   8    6.65   39.43   0
  -1 -11   0  541.34   34.03   0
  -1  -8   5  478.34   29.50   0
  -1  -7   6  872.92   34.97   0
  -3  -1  12  469.32   35.83   0
  -3   0  12  134.13   32.06   0
  -2 -13   0  183.17   32.71   0
  -1 -11  -6  209.91   40.14   0
  -1  -9   4   31.09   21.66   0
  -1  -6   7   13.20   21.46   0
   0  -7   3 1133.91   35.99   0
   0  -6   4 1027.81   33.40   0
   0  -3   6    7.40   17.03   0
   0  -2   6  642.90   27.61   0
   0  -1   6 1162.16   34.92   0
  -3  -2  12  185.88   29.22   0
  -3   1  12  100.70   34.37   0
  -1  -3  -6 1442.86   63.67   0
  -1   0   9 1457.26   41.16   0
  -1   1  -2 5452.18  100.75   0
   0  -8  -4 2465.73   67.81   0
   0  -5   5  323.27   22.42   0
  -2  -1  11  324.99   29.00   0
  -2   0  11   12.84   26.64   0
  -1 -11   1   63.23   28.16   0
  -1  -5   8  381.06   27.10   0
  -1   2   8  490.72   32.85   0
   0  -9  -2   89.93   27.67   0
   0  -8   2   38.88   21.43   0
  -3  -3  12   12.57   26.04   0
  -2  -2  11  460.77   31.20   0
  -1 -12  -3  204.12   37.58   0
  -1 -12  -2  733.71   42.63   0
  -1   2   0 2278.24   74.83   0
   0  -9   0  267.56   29.84   0
   0  -4   6  274.42   21.67   0
   0   0   6   39.57   17.41   0
  -3   2  12  465.28   41.19   0
  -2 -14  -2  394.22   40.60   0
  -2   1  11  475.58   36.08   0
  -1 -12  -1   35.08   32.07   0
  -1  -9   5  372.71   28.44   0
  -1  -8   6    3.51   23.75   0
  -1  -7   7  629.78   33.12   0
  -1   1   9  196.92   25.37   0
   0  -7   4    5.94   21.64   0
   0   1   4 1977.75   63.51   0
  -2  -3  11   67.29   28.50   0
  -1 -11   2  788.35   36.75   0
  -1  -4   9  490.98   27.46   0
   0  -8   3  476.88   29.30   0
   0  -5   6 1116.00   34.56   0
   0  -2   7  717.75   28.28   0
   0   1   3   86.62   24.71   0
  -1 -12   0  446.94   37.97   0
  -1 -10   4  450.74   31.76   0
  -1  -6   8  969.06   33.65   0
  -1   0  -3 2971.34   77.95   0
   0  -3   7 2219.20   44.72   0
   0  -1   7   11.52   15.40   0
  -2   3  10 2032.06   61.27   0
   0  -7  -5 2111.26   83.93   0
   0   1   5  114.74   22.56   0
  -2  -4  11  203.98   28.96   0
  -2   4   3   27.81   27.52   0
  -1  -5   9  168.08   22.88   0
  -1  -2  10  719.70   34.57   0
  -1  -1  10  299.66   28.87   0
   0  -7   5 1064.32   35.96   0
   0  -6  -5 1257.81   88.73   0
   0  -4   7  301.42   25.63   0
  -3  -1  13   10.66   34.71   0
  -2   2  11  880.52   42.56   0
  -1 -12   1  257.91   32.20   0
  -1  -9   6  266.83   29.07   0
  -1  -8   7  593.39   32.88   0
  -1   0  10   23.67   23.35   0
  -1   3   7 1512.32   63.51   0
   0 -10  -2 1370.53   47.00   0
   0 -10  -1    9.08   27.15   0
   0  -8   4  326.59   27.11   0
   0  -6   6  361.20   29.77   0
   0   0   7 1336.55   38.58   0
  -3  -2  13  259.14   33.08   0
  -3   0  13  289.81   37.79   0
  -1  -7   8  135.43   26.52   0
  -1   2   9 1511.72   48.34   0
   0 -10  -3  991.27   45.09   0
   0  -8  -5   23.46   35.34   0
   0  -5   7  215.25   24.61   0
   0   1   6 1160.87   43.63   0
  -3   5   6    3.76   42.63   0
  -2  -2  12  158.05   28.77   0
  -2  -1  12   84.82   27.72   0
  -2   0  12  631.24   39.38   0
  -1 -13  -3   46.95   37.99   0
   0 -10   1   49.63   28.15   0
   0  -9   3    1.67   24.10   0
   0  -3   8  191.70   24.10   0
   0  -2   8  396.59   24.63   0
   0  -1   8 1581.02   39.93   0
  -1 -13  -2  186.11   38.10   0
  -1  -6   9   61.15   21.77   0
  -1   1  10  941.16   38.72   0
   1  -4   2 1508.82   41.01   0
  -1 -13  -1  284.86   33.89   0
   0  -8   5  132.19   24.52   0
   0  -7   6  159.52   26.37   0
   0  -4   8  491.01   29.13   0
   1  -5   1  770.52   31.42   0
   1  -5   2 1238.91   36.52   0
   1  -4   1 2309.42   52.03   0
   1  -4   3    3.66   16.89   0
  -2   1  12  558.08   39.08   0
  -2   4   9  595.99   54.18   0
  -1 -13   0    8.10   30.24   0
   0  -9   4  629.77   30.61   0
   0  -6   7  859.65   34.75   0
   1  -5   0 2524.11   55.22   0
   1  -5   3  512.57   26.77   0
   1  -3   2   56.69   17.41   0
   1  -3   3 1778.64   44.07   0
  -1  -5  10  569.12   31.61   0
  -1  -2  11   90.19   26.43   0
  -1  -1  11  243.86   28.17   0
   0 -11  -1  278.99   34.80   0
   0  -9  -5 1171.75   56.84   0
   1  -6   0  533.14   29.45   0
   1  -6   2    8.57   17.36   0
   1  -4   0  904.87   37.65   0
   1  -4   4 2563.67   48.35   0
  -2   4   4 1469.58   73.54   0
  -1  -3  11  566.05   33.02   0
  -1   0  11 1263.84   42.35   0
  -1   3   8 1359.86   55.61   0
   0 -11  -2  421.09   37.51   0
   0 -11   0  210.51   33.79   0
   0  -5   8  418.67   27.51   0
   1  -6   3 1778.88   42.29   0
   1  -5   4  348.93   24.68   0
  -2   3  11  365.42   38.79   0
   0 -11  -3   38.26   35.94   0
   0  -7   7  265.50   28.76   0
   0  -3   9  722.07   30.59   0
   1  -2   3 2511.79   53.60   0
   1  -2   4  138.85   19.64   0
  -2   2  12    6.74   32.26   0
  -1   1  -1  144.52   26.35   0
  -1   2  10 1240.24   45.62   0
   0 -11   1  542.56   36.33   0
   0  -9   5  149.20   24.48   0
   1  -5  -1   31.31   21.68   0
   1  -4   5  114.22   19.23   0
   1  -2   2 3011.87   62.69   0
  -2  -1  13  374.82   34.44   0
   0  -6   8    1.59   22.79   0
   0  -4   9    0.80   19.86   0
   1  -7   3  318.29   25.96   0
   1  -6   4  433.78   27.99   0
   1  -2   5  980.01   33.19   0
  -2  -2  13  135.87   29.01   0
  -2   0  13  159.61   36.38   0
  -1   1  11  351.22   30.66   0
   0 -11   2    7.35   29.28   0
   0 -10  -5  849.24   49.00   0
   1  -3   6 1996.01   43.10   0
  -1   2   1  309.63   40.33   0
   0  -5   9  365.06   26.30   0
   1  -6   5  996.23   35.42   0
   1  -4   6 1168.58   34.34   0
   1  -3   0 2586.46   65.11   0
   1  -2   6  408.16   25.38   0
  -1  -2  12  372.86   32.65   0
   0 -12  -1  389.78   37.71   0
   0  -9   6  141.93   26.36   0
   0  -8   7   52.09   25.67   0
   0  -7   8  304.61   28.73   0
   1  -8  -1  281.83   29.38   0
   1  -7   4  784.39   33.51   0
   1  -5   6  125.76   23.57   0
   1  -4  -1 2376.34   64.22   0
   1  -1   4 3765.54   65.37   0
  -2   1  13  202.58   36.91   0
  -1  -3  12   22.63   27.50   0
  -1  -1  12  527.01   34.86   0
   0 -12  -2    5.21   34.05   0
   0 -12   0   54.91   30.61   0
   0 -11   3  433.72   33.08   0
   0  -1  10 1115.73   38.51   0
   1  -8   3  188.95   25.19   0
   1  -7  -2  137.95   27.32   0
   1  -2   1   49.17   18.52   0
   1  -1   5 2345.05   49.95   0
  -1   0  12   28.71   29.57   0
   0 -12  -3  542.49   45.89   0
   0 -12   1  368.27   35.98   0
   0   1   9 1486.76   44.04   0
   1  -7   5    1.55   22.65   0
   1  -4   7  800.47   32.37   0
   1  -3   7    1.96   18.74   0
   1  -1   3   49.46   17.45   0
   1  -1   6  146.00   20.80   0
   0   0  10 1104.96   38.73   0
   1  -9   1  639.25   35.59   0
   1  -8  -2  712.92   38.36   0
   1  -8   4  594.91   30.02   0
   1  -6   6 1159.38   37.14   0
   1  -2   7  607.93   27.88   0
  -1   2  11    6.60   27.45   0
   0 -11  -5   79.74   38.26   0
   0  -5  10  124.10   24.36   0
   1  -9  -1  146.26   29.41   0
   1  -5   7  597.52   30.82   0
  -2   3  12  721.46   45.86   0
  -1   1  12  565.58   39.91   0
   1  -1   7 1909.36   43.04   0
  -2  -1  14   56.35   34.93   0
  -1   0  -2  411.46   37.67   0
   0  -2  11  687.10   34.25   0
   1  -9  -2 1431.22   48.82   0
   1  -8   5  649.69   30.95   0
   1  -7   6  602.90   32.05   0
   1  -6   7   45.17   26.00   0
   1  -4   8   19.43   21.89   0
   1  -3   8  615.98   30.00   0
   1  -2   8 1149.77   34.69   0
  -1   3  10   26.92   29.80   0
   0 -13  -1   86.30   40.24   0
   0  -1  11  848.63   37.02   0
   0   2   8 2973.25   65.61   0
   1 -10   0   10.22   28.53   0
   1 -10   1  634.96   37.17   0
   1  -1   2 5272.30   91.66   0
  -1  -1  13   16.47   27.30   0
   0 -13  -2  369.12   42.76   0
   0 -13   0  410.21   38.25   0
   0   1  10  130.91   25.02   0
   1 -10   2  172.25   31.45   0
   1  -5   8  197.90   25.43   0
   1  -1   8   78.32   20.78   0
   1   0   5   88.66   19.87   0
   1   0   6 2928.41   56.53   0
   0   0  11    9.89   25.74   0
   1  -8   6   43.47   23.09   0
   1  -7   7  112.17   25.46   0
   1 -10  -2  321.44   36.92   0
   1 -10   3  198.04   29.44   0
   1  -6   8  619.88   31.26   0
   1  -3   9  449.86   27.88   0
   1  -2   9  136.08   22.44   0
   1   0   4 4734.66   80.50   0
   1   0   7  115.11   18.62   0
  -1   2  12  856.48   44.51   0
   0   2   9 1514.30   47.48   0
   1  -4   9 1004.14   33.95   0
   0  -2  12  174.56   29.38   0
   1 -11   0  351.84   36.54   0
   1  -5   9  303.78   27.11   0
   1   0   8 1163.49   36.76   0
  -1   1  13  722.61   43.30   0
   0  -3  12  530.40   32.87   0
   0  -1  12   22.60   28.58   0
   0   1  11  889.74   39.26   0
   1 -11  -1  363.66   40.82   0
   1 -11   1   62.22   31.35   0
   1  -7   8  142.29   27.46   0
   1  -2   0 2256.43   70.12   0
   1 -11   2  501.99   35.05   0
   1  -6   9   35.52   23.91   0
   1  -3  10  294.70   28.95   0
   2  -6   3    3.43   22.43   0
   2  -5   3  582.85   29.08   0
   2  -5   4  741.59   30.83   0
  -1  -1  14  226.50   34.85   0
   0   0  12  755.38   37.43   0
   0   2  10  350.91   30.84   0
   1 -11  -2   73.68   39.26   0
   1  -4  10   35.30   21.25   0
   2  -6   2 1924.97   45.49   0
   2  -6   4 1114.92   37.99   0
   2  -5   2  211.89   22.41   0
   2  -5   5  -19.34   23.01   0
   2  -4   3 1216.31   37.43   0
   2  -4   4   25.44   16.63   0
   2  -4   5 1256.70   36.52   0
   2  -7   3  719.67   32.98   0
   2  -6   5  506.11   30.38   0
   2  -7   4    6.35   22.83   0
   2  -6   1  275.93   24.80   0
   2  -5   6  926.92   35.67   0
   2  -4   2  297.80   24.31   0
   2  -4   6 1205.04   36.67   0
   2  -3   4 1248.25   35.67   0
   2  -3   5 1776.52   40.88   0
   2  -3   6  396.36   25.64   0
  -2   4   1   23.90   20.12   0
  -2  12   0   26.90   34.54   0
  -2  12   2   50.82   28.12   0
  -1  13   7  206.98   29.22   0
   0  -1  -3  118.32   29.01   0
   0   7   8  129.43   23.68   0
   2   7  10  362.77   40.34   0
   2  12  12   87.15   35.86   0
   3  13  13  480.76   44.91   0
   4   7  11  180.73   48.92   0
  -2   6   3 5222.91   71.31   0
  -2   8   4 1097.49   34.62   0
  -2  10   4   98.28   22.35   0
  -1   9   7 1038.47   36.84   0
  -1  12   7  492.54   31.11   0
   2   9  11  290.64   36.60   0
   2  13  12  537.31   42.86   0
   4  11  13  111.65   43.57   0
  -2   9   4  172.79   22.71   0
  -2  11   3   -5.08   24.85   0
  -1  10   7   84.27   26.30   0
  -1  11   7  291.91   28.62   0
   0  10   9  442.38   30.12   0
   0  13   9   43.66   29.47   0
  -2  11  -1  453.18   40.04   0
  -1   0  -6 2889.20  114.99   0
  -1   7   6 1884.95   45.13   0
  -1  13   6  510.75   31.71   0
   0  12   9  437.70   31.29   0
   3  10  12   23.48   39.78   0
  -2   7   3  920.21   33.21   0
  -2  11   0  286.83   32.71   0
  -2  11   1  218.90   30.46   0
  -2  11   2  477.96   32.51   0
   0   6   7  564.66   31.29   0
   3   8  11   26.52   39.05   0
   4   9  12  232.41   47.82   0
  -2   5  -6  784.75   60.02   0
  -2   8   3  596.77   29.33   0
   0   8   8  234.47   25.81   0
   4  12  13  485.29   49.27   0
  -2   6   2   95.80   21.09   0
  -2  10  -2  433.13   39.44   0
  -1   2   1  313.89   34.23   0
  -1   6   5  703.77   31.60   0
  -1   8   6  133.21   22.27   0
  -1  12   6   18.38   21.48   0
   2   6   9  185.01   32.92   0
   2  10  11   25.39   29.53   0
  -2   4   0 2860.25   65.08   0
  -2  10   2  406.00   29.43   0
  -1  11   6  454.35   29.65   0
   0  13   8  457.08   32.64   0
   1  11  10 1164.18   42.31   0
   1  12  10  378.73   30.95   0
   1  13  10   10.50   26.70   0
   3  11  12  312.77   39.54   0
   4   0   4 1696.59   88.08   0
   4  13  13   45.35   41.63   0
  -2   5   1 2388.95   53.48   0
  -2  10  -1   88.60   30.34   0
  -2  10   1   99.86   26.79   0
  -1   9   6  285.32   25.49   0
   0   5   6 2965.13   63.21   0
   0   9   8 1085.61   39.33   0
   2   8  10  125.52   32.26   0
   2  11  11  789.34   41.96   0
   4   6  10  770.52   58.25   0
  -2   3  -3  193.28   34.45   0
  -2   7   2  804.75   31.74   0
  -2   9  -3   -1.76   33.07   0
  -1   5   4  604.36   31.35   0
  -1  12   5  612.11   29.35   0
   0   2   3 1979.03   75.98   0
   0  12   8  879.88   38.63   0
   2  12  11  454.21   37.62   0
   3  12  12  643.23   45.05   0
   3  13  12   77.07   36.98   0
  -2   8  -4  356.12   37.23   0
  -1   0  -7  132.67   41.89   0
  -1   1  -1  155.12   39.86   0
  -1  13   3   94.66   27.63   0
   0   4   5 2859.85   68.07   0
   0   7   7 1989.90   48.76   0
   0  10   8  759.74   34.11   0
   0  11   8   27.45   24.13   0
   4  10  12  900.85   54.23   0
  -2   6   1 1719.33   44.81   0
  -2   9  -2  844.64   41.92   0
  -2   9   1  945.81   36.71   0
  -1   4   3 1967.87   53.75   0
  -1   7   5  685.24   30.32   0
   2   5   8 1467.94   59.03   0
   3   7  10  665.88   48.11   0
   3   9  11  586.38   44.49   0
  -2   6  -5  425.41   42.92   0
  -2   9  -1  250.87   30.82   0
  -2   9   0  522.84   32.07   0
  -1  11   5  597.16   29.12   0
  -1  13   1  458.34   35.16   0
   0   3   4   21.20   20.22   0
   0  13   7  399.05   31.59   0
   1   9   9 1803.87   47.60   0
   4   8  11  959.61   57.42   0
  -2   8  -3  482.75   37.15   0
  -1   8   5 2713.92   50.67   0
  -1  10   5   29.91   22.52   0
   1  13   9  511.32   34.50   0
  -2   5  -5   -0.81   31.72   0
  -2   7  -4   -3.69   30.71   0
  -2   8   0  167.17   27.90   0
  -1   9   5  164.65   24.73   0
  -1  12   3  114.54   27.30   0
   0   8   7  501.64   29.10   0
   0  12   7   75.45   27.46   0
   1  10   9  672.17   34.69   0
   4  11  12  359.21   42.84   0
  -2   4  -2  300.20   32.90   0
  -2   7   0 1737.51   45.76   0
  -2   8  -2  217.65   32.04   0
  -2   8  -1 1369.38   43.51   0
  -1   6   4 1916.57   46.34   0
  -1  11   4   82.29   21.30   0
  -1  12  -1  113.80   38.04   0
   1   7   8 2146.42   52.40   0
   1  11   9    7.44   22.86   0
   1  12   9  524.05   30.25   0
   3  10  11  720.00   42.07   0
   4   5   9  624.36   62.31   0
  -2   4  -4   37.96   28.90   0
  -2   6  -4 1077.51   49.34   0
  -2   7  -3  707.25   40.76   0
  -1  12   2  314.29   31.20   0
   0   6   6  478.19   29.09   0
   0   9   7  286.14   27.09   0
   0  11   7  575.24   33.82   0
   0  13   6   41.67   25.86   0
   2   4   7 1917.59   72.24   0
   2   7   9  596.36   38.60   0
   4  12  12   45.66   34.90   0
   5   6  10   10.58   49.92   0
  -2   4  -3 1193.52   51.23   0
  -2   7  -2  736.63   37.01   0
  -2   7  -1  545.28   32.99   0
  -1  12   0  572.80   34.02   0
  -1  12   1   -2.91   26.72   0
   0  10   7 1159.41   38.60   0
   1  -2  -2 4206.61   86.29   0
   1   4   6 2464.49   70.24   0
   2  13  10  546.91   37.37   0
   4  13  12  543.76   44.35   0
   5  10  12    5.20   42.08   0
  -2   5  -4  689.58   44.51   0
  -2   5  -2  207.34   29.22   0
  -2   6  -1  295.29   27.17   0
  -1   7   4 2325.71   48.83   0
  -1  10   4 1677.48   39.60   0
   3  11  11   80.64   31.29   0
   3  12  11  252.18   37.17   0
   3  13  11  808.25   44.18   0
  -2   5  -3  557.39   38.26   0
  -2   6  -3    5.62   25.99   0
  -2   6  -2 1863.16   51.89   0
  -1   5   3 1226.02   41.31   0
  -1   8   4   26.23   19.81   0
   0  12   6  630.66   32.72   0
   0  13   5  505.22   30.14   0
   1  13   8  224.16   29.25   0
   3   6   9 2381.76   72.82   0
  -1   0  -8 1095.80   74.51   0
  -1  11  -2  437.86   39.48   0
  -1  11   2   77.59   26.48   0
   4   9  11  446.22   47.65   0
   5   8  11   25.12   43.97   0
  -1  10   3  924.03   33.74   0
   0   5   5   29.91   20.31   0
   0   7   6   73.09   21.67   0
   1  12   8  130.09   26.87   0
   5  11  12  417.61   46.44   0
  -1  11  -1   83.54   28.48   0
  -1  11   0  299.08   31.93   0
  -1  11   1  385.05   30.62   0
   1   6   7  288.77   26.88   0
   1   9   8   20.51   22.84   0
   1  11   8  802.17   34.34   0
   2   3   6  217.34   42.29   0
   4   7  10  709.97   51.66   0
  -1   4   2   45.43   20.05   0
   0   8   6 2476.35   50.14   0
   0  10   6   44.53   24.33   0
   0  12   5  101.59   23.22   0
   1  10   8  633.99   33.93   0
   2   6   8 2246.66   64.50   0
   2  13   9   97.13   26.37   0
   5  13  12   -4.96   36.65   0
  -1   2   0 2214.65   77.90   0
  -1   6   3   29.47   18.06   0
  -1   9   3   12.15   20.47   0
   0   9   6  994.98   35.59   0
   0  13   3  319.85   31.43   0
   1  13   7  239.10   29.42   0
   3   9  10   80.54   32.40   0
   4   4   8   30.06   50.80   0
   4  10  11   67.54   37.97   0
  -1   3   1 4108.74   86.56   0
  -1   7   3 1568.91   41.82   0
  -1   8   3 1812.95   42.29   0
  -1  10  -3  169.76   36.71   0
   2  12   9   65.07   25.98   0
  -1  10   1  586.66   32.79   0
   0   4   4 4273.34   81.11   0
   0  11   5   94.40   23.81   0
   0  13   0  434.67   39.08   0
   0  13   1  108.18   31.41   0
   2  11   9  680.28   34.40   0
   2  14   8   17.49   27.83   0
   4  12  11  526.17   42.68   0
   4  13  11    5.71   35.78   0
  -1  10  -2  189.80   34.92   0
   0  -2  -4 4279.91   89.01   0
   0  12   4  358.82   26.18   0
   1   7   7   46.52   22.34   0
   3  10  10  117.87   32.36   0
   5   5   9  303.19   62.24   0
   5   9  11  443.35   49.65   0
  -1  10  -1  598.51   35.73   0
  -1  10   0   10.89   24.90   0
   1  13   6  441.04   30.26   0
   3   5   8  557.14   50.48   0
   3  11  10  542.04   37.10   0
  -1   5   2 1192.07   41.14   0
  -1   9  -4   40.91   36.00   0
   0  10   5  932.27   34.32   0
   1   5   6  460.26   33.50   0
   1  11   7  308.93   28.93   0
   3   7   9  343.34   39.01   0
  -1   8   2  746.36   30.67   0
   0   7   5 2186.07   48.82   0
   1   8   7  817.00   33.94   0
   2  13   8  322.51   29.11   0
   3  14   9   12.10   29.97   0
   4   8  10    3.93   39.12   0
  -1   6   2 1713.90   45.24   0
  -1   7   2  105.64   20.31   0
   0   8   5   11.08   19.10   0
   0  11   4  901.00   33.39   0
   0  12  -2  240.57   40.87   0
   0  12   2   -8.13   26.80   0
   1   9   7 1485.29   41.88   0
   1  10   7   25.45   23.48   0
   2  14   7  302.06   36.07   0
   5  10  11  712.23   50.40   0
  -1   9  -3  702.59   42.35   0
  -1   9   0  562.44   32.83   0
   0   3   3 2462.08   71.43   0
   1  12   6  193.36   28.92   0
   1  13   5    8.15   22.81   0
   2  12   8  464.47   32.15   0
   4   6   9  256.41   47.13   0
  -1   4   1 2385.57   60.85   0
  -1   9  -2   38.99   29.83   0
  -1   9  -1  620.09   34.53   0
   0  12  -1  369.32   34.39   0
   0  12   0   54.36   29.70   0
   0  12   1  350.82   32.41   0
   1  -2  -1  348.50   33.24   0
   3  13   9  486.34   34.62   0
   5  11  11  142.39   38.72   0
   5  13  11  390.44   42.38   0
   0   5   4 3670.29   69.63   0
   0  10   4  345.93   27.73   0
   0  11   3   40.30   20.89   0
   2  11   8  396.92   30.57   0
   3   8   9  132.53   31.49   0
   4  13  10  476.77   40.18   0
   5  12  11  236.40   37.52   0
   1  11   6  245.55   28.75   0
   1  13   4  365.91   29.16   0
   2  13   7  492.46   32.99   0
   2  14   6  221.06   31.66   0
  -1   7   1  672.76   31.56   0
   1   6   6 1376.78   44.08   0
   2   9   8 2021.09   48.87   0
   2  10   8  165.95   25.54   0
   3  14   8  301.46   34.03   0
   4  10  10  804.78   43.41   0
   4  12  10  406.63   38.45   0
  -1  -1  -7 1821.59   80.87   0
  -1   3   0 2622.45   73.37   0
  -1   5   1   41.12   18.55   0
  -1   6   1 1219.85   39.81   0
   0   2   2 1491.66   69.11   0
   0   9   4  455.59   26.81   0
   1   4   5 2232.81   66.48   0
   1  12   5  467.90   30.41   0
   3   9   9  719.35   41.35   0
   4  11  10   -0.96   32.45   0
   6  10  11   51.80   44.13   0
   0   6   4   50.20   19.51   0
   0  10   3  983.89   35.16   0
   0  11  -3  424.28   42.42   0
   1  10   6 1285.08   40.38   0
   6  13  11   -5.28   38.37   0
  -1   8  -3  177.10   33.13   0
  -1   8  -2  879.64   39.77   0
  -1   8  -1   34.60   23.93   0
   0   7   4 2232.51   49.37   0
   0  11   1  243.69   28.36   0
   1   7   6 1107.63   38.88   0
   1   9   6  460.76   29.17   0
   2  12   7   49.81   25.55   0
   2  14   5   99.85   31.11   0
   3   4   7  677.02   57.10   0
   3   6   8  197.79   34.74   0
   5   8  10  750.06   53.07   0
   6  11  11  385.76   45.68   0
   6  12  11  190.73   43.24   0
  -1  -1  -8 2096.54   83.77   0
  -1   2  -1   88.20   30.89   0
   0  11  -2    5.14   27.05   0
   0  11  -1  603.81   36.51   0
   0  11   0  162.08   29.91   0
   1   8   6  281.50   25.51   0
   1  13   2  201.20   30.93   0
   2  13   6  111.51   28.62   0
   3  13   8  320.99   28.56   0
  -1   7  -5   15.08   32.09   0
   1  11   5  843.04   35.19   0
   1  12   4  290.11   25.73   0
   1  13   0   26.92   31.29   0
   1  13   1  293.78   32.73   0
   3  14   7    6.39   29.14   0
   4   7   9 1181.05   55.19   0
   0   4   3  831.57   40.65   0
   0   9   3  807.07   32.71   0
   0  10   2 1304.30   38.12   0
   2  11   7  653.85   33.76   0
   3  -1   3   69.00   40.69   0
   5  13  10  144.49   34.68   0
  -1   4   0  883.98   41.87   0
  -1   7  -1 1192.63   40.63   0
   3  12   8   17.18   23.88   0
   5   9  10  161.56   43.25   0
  -1   5   0 2489.37   59.32   0
  -1   7  -4  752.36   43.91   0
   0  10  -4   97.75   35.61   0
   1  10   5    6.97   22.09   0
   1  12   3  188.22   25.04   0
   2   7   7 2084.38   54.19   0
   2  10   7  776.27   35.75   0
   2  12   6 1090.09   42.03   0
   2  13   5  544.03   31.78   0
   5   6   9  702.06   56.80   0
   5  12  10  130.41   34.93   0
  -1   6  -6 1118.63   55.29   0
  -1   7  -3  312.86   32.66   0
  -1   7  -2  858.83   38.03   0
   0   8   3   56.63   20.66   0
   1   5   5 3456.58   72.32   0
   3   7   8  977.94   45.14   0
   4   5   8 2149.02   82.31   0
   4  14   8   32.51   32.09   0
   5  10  10  374.98   42.97   0
   5  11  10  661.12   44.50   0
   0  10  -3  583.84   40.40   0
   0  10   0  845.11   37.60   0
   1  11   4   26.20   22.73   0
   1  12  -3  358.30   42.97   0
   2   8   7  668.23   33.90   0
   2   9   7  104.49   23.37   0
   3  13   7  153.82   28.10   0
   4   8   9  372.56   39.13   0
   6   8  10   99.78   46.07   0
   0   5   3  890.01   38.73   0
   0   7   3  347.88   26.28   0
   0   9   2   75.00   21.73   0
   0  10  -2  570.14   36.71   0
   0  10  -1   45.74   26.76   0
   1   3   4 3644.09   94.91   0
   1   9   5 1120.94   36.32   0
   4  11   9  605.82   38.22   0
   6  13  10  348.53   42.36   0
   1  12  -2  142.42   35.94   0
   1  12   1   16.54   27.65   0
   2  11   6  903.38   37.94   0
   2  13   4   -3.71   22.59   0
   4   9   9   32.54   32.64   0
   4  10   9  549.80   40.13   0
   1   6   5  917.14   37.88   0
   1  11   3  762.95   33.68   0
   1  12  -1  287.20   33.12   0
   1  12   0  474.13   35.14   0
   2  12   5  390.90   34.01   0
   4  13   8  403.12   35.90   0
   5  13   9  268.43   39.56   0
   1   7   5  658.06   32.93   0
   1  10   4  465.34   30.71   0
   3  12   7  962.05   37.76   0
  -3   9   1   42.01   31.06   0
  -2   6   2  100.70   26.53   0
  -2   8   2  551.13   32.74   0
  -2  12   0   24.66   34.17   0
  -1  12   1    3.75   25.58   0
   2  12   2   50.62   21.52   0
   4  10   2  948.11   34.36   0
   5  11   1  186.93   24.16   0
   6  11   0   87.77   29.14   0
   7   3  -3  372.33   43.95   0
   7   8  -1   53.32   30.47   0
   7   9  -1  460.57   37.31   0
   8   9  -3   28.56   38.59   0
  -2   7   2  781.19   36.40   0
  -1  10   2  312.62   27.92   0
   1   4   2   78.21   20.20   0
   3  13   1  411.62   33.82   0
   4   8   2  753.12   31.31   0
   4   9   2   34.81   22.29   0
   6   4  -1 1188.50   49.55   0
   8   8  -3  127.92   40.85   0
  -3   4   1 1995.88   75.28   0
   0   4   2 1257.26   48.00   0
   2  13   1   71.98   25.33   0
   3  11   2  284.29   27.59   0
   4   1  -1 2698.97  101.71   0
   5   4   0 1151.00   46.77   0
   5  10   1  992.20   34.72   0
   6   7   0 1048.11   42.87   0
   7   5  -2  279.89   38.15   0
  -4   8   0  148.93   35.29   0
   1  11   2  239.44   21.74   0
   2  11   2  862.21   31.97   0
   3   6   2  887.37   33.43   0
   5   9   1  611.30   31.07   0
   5  12   0  356.62   32.14   0
   6   8   0   34.65   26.88   0
   6   9   0  587.11   34.85   0
  -4   3   0  721.76   70.35   0
  -3   8   1  517.17   37.55   0
  -1   0   0    8.88   41.32   0
  -1   9   2 1336.22   39.68   0
   0  12   1  361.45   30.88   0
   3  10   2  217.36   25.69   0
  -3  10   0   13.46   31.88   0
  -2  10   1   82.95   26.30   0
  -1   5   2 1153.78   44.27   0
   2   5   2  900.02   35.57   0
   3  12   1    4.95   25.09   0
   5   1  -2 1890.18   85.57   0
   7  10  -2  227.84   36.26   0
  -4   0  -1  272.07   54.39   0
  -1  11   1  407.39   29.48   0
   1   2   1   38.24   20.24   0
   2  10   2  742.02   30.44   0
   3   7   2   -0.14   17.20   0
   3   8   2 1301.31   36.73   0
   3   9   2 2011.64   43.35   0
   4   5   1 2967.97   59.28   0
   4  11   1  361.04   26.41   0
   6  11  -1  300.68   34.10   0
   7   6  -2  160.02   36.34   0
  -4   7   0  792.83   45.17   0
  -3   5   1  905.89   48.68   0
  -3   7   1 1714.09   52.50   0
  -2  11   0  291.35   30.52   0
  -1   2   1  292.23   40.87   0
  -1  12   0  567.67   34.15   0
   1  10   2   58.66   18.89   0
   2  12   1  791.38   31.99   0
   5  11   0  598.97   31.26   0
   6   5  -1  833.70   41.18   0
   7   7  -2  579.35   41.32   0
   7   9  -2    5.57   29.16   0
  -5   3  -1 1275.30   95.88   0
  -3   6   1  241.39   32.35   0
  -1   6   2 1704.99   47.01   0
   0   9   2   76.08   19.27   0
   4  10   1   45.59   22.76   0
   4  12   0  164.40   29.29   0
   6  10  -1   46.13   30.72   0
   7   8  -2  394.11   36.31   0
  -2   9   1  926.89   37.86   0
   0   5   2  533.86   30.13   0
   2   6   2  933.34   33.86   0
   2   9   2  116.16   19.61   0
   3  11   1  362.33   30.26   0
   6   3  -2 1293.95   57.56   0
   0  12   0   52.99   27.43   0
   1   9   2 1067.48   31.89   0
   2   7   2 2538.18   48.64   0
   2   8   2  645.99   28.06   0
   4   6   1  690.49   30.37   0
   4   9   1  823.77   32.43   0
   5  10   0   24.62   23.48   0
  -4   6   0  804.14   45.89   0
  -3   9   0  621.70   38.94   0
  -1  10   1  562.08   29.35   0
   0   2   1 2902.09   98.58   0
   1  11   1  370.41   24.17   0
   2  11   1  434.03   28.27   0
   3   4   1 2468.15   59.16   0
   3  12   0  327.79   31.62   0
   6   6  -1   37.56   26.46   0
   6   9  -1  141.78   28.32   0
  -5   5  -1   13.46   38.64   0
  -1  12  -1   99.18   29.37   0
   0   6   2  651.96   29.49   0
   0   7   2 2143.73   45.00   0
   1   6   2 2794.26   54.20   0
   1   8   2  565.95   26.18   0
   2  12   0  140.20   23.94   0
   4   7   1   62.91   18.30   0
   4   8   1 1241.53   36.60   0
   4  11   0   46.47   24.47   0
   5  11  -1   17.54   27.15   0
   6   7  -1  652.10   36.20   0
   6   8  -1  629.43   36.61   0
   7   9  -3  466.15   38.49   0
  -4   4   0 1119.58   63.91   0
  -4   5   0    8.62   32.44   0
  -3  10  -1  663.92   40.71   0
  -2  10   0  661.51   35.76   0
  -1  11   0  312.40   29.66   0
   1   7   2    4.80   15.74   0
   2   3   1 1736.37   57.30   0
   3  10   1  387.25   25.76   0
   4  12  -1  278.71   30.32   0
   5   3  -1 3282.21   76.98   0
   7   5  -3  651.90   44.36   0
  -5   4  -1  413.43   54.24   0
  -2   8   1  501.18   30.55   0
  -2  11  -1  496.51   33.33   0
   6  10  -2  287.87   34.70   0
   7   8  -3  184.66   33.15   0
   2  10   1   11.49   20.44   0
   7   3  -4  565.96   46.83   0
   7   6  -3  406.82   41.16   0
   7   7  -3   12.74   33.92   0
  -4   8  -1  697.34   41.95   0
  -1   9   1  146.12   22.62   0
   0  12  -1  396.82   32.32   0
   1  10   1 1546.42   37.17   0
   3   2   0 3877.22   95.32   0
   3   9   1  140.66   20.66   0
   3  11   0  507.22   31.99   0
   3  12  -1  139.86   29.69   0
   5  10  -1  751.23   34.07   0
  -3   8   0  682.19   38.77   0
  -2   7   1   16.45   21.88   0
   0  -3  -2  665.91   39.02   0
   2  12  -1  211.38   29.11   0
   3   5   1   24.84   16.95   0
   6   4  -2   65.59   28.82   0
   6   9  -2  748.23   39.28   0
   7   9  -4   99.46   37.43   0
  -5  -1  -2  709.42   56.47   0
   1  11   0  498.61   26.84   0
   2  11   0  267.88   25.36   0
   3   8   1  346.73   23.90   0
   4  11  -1  807.85   34.42   0
   5   0  -3  477.29   66.38   0
   6   2  -3   31.93   35.56   0
  -2  11  -2   33.26   29.67   0
  -1  10   0    0.21   21.95   0
  -1  11  -1  101.99   26.73   0
   0   9   1 1108.34   32.28   0
   2   9   1  881.75   31.88   0
   3   7   1  941.01   32.75   0
   4   9   0  441.93   28.13   0
  -3   9  -1  501.63   36.65   0
  -3  10  -2   38.67   32.39   0
  -2   6   1 1752.67   49.20   0
  -2   9   0  473.22   30.18   0
   1   9   1  411.97   25.11   0
   3  10   0   12.66   23.97   0
   5   4  -1  376.41   31.87   0
   6   5  -2  533.25   35.58   0
   6   8  -2   64.69   26.09   0
   7   8  -4  114.36   33.23   0
  -2  10  -1   68.87   26.86   0
   2   4   1 1167.26   41.98   0
   3  11  -1   37.20   24.31   0
   6   7  -2  194.54   29.05   0
   7   4  -4  668.51   45.61   0
  -4   7  -1  130.78   31.88   0
  -3   7   0    2.20   23.09   0
   1   3   1 1290.89   50.91   0
   2   8   1 1813.54   40.14   0
   4   8   0   26.98   19.44   0
   4  10  -1  283.84   25.82   0
   4  11  -2   27.57   28.01   0
   6   6  -2  907.22   39.44   0
   7   7  -4  473.39   39.06   0
   0   8   1  810.63   27.98   0
   2  10   0  847.13   31.50   0
   2  11  -1  552.75   31.67   0
   4   0  -2 1860.57  105.00   0
   4   5   0  537.31   28.82   0
   4   7   0 1196.82   36.90   0
   6   9  -3   29.26   30.85   0
   7   5  -4    0.92   33.32   0
   7   6  -4  360.53   38.80   0
  -1   3   1 4218.97   96.27   0
  -1  11  -2  467.06   32.98   0
   1  10   0   -2.53   18.70   0
   1  11  -1   55.37   20.37   0
   2   7   1   62.04   17.02   0
   3   9   0  406.17   26.32   0
   4   6   0 1062.33   35.00   0
   5   5  -1  343.91   27.82   0
   7   8  -5  271.39   39.38   0
  -3  10  -3  305.96   39.26   0
  -1   9   0  556.45   30.04   0
   2   5   1 1638.60   44.36   0
   2   6   1 1463.15   38.85   0
   4  -4  -5 1956.93   75.31   0
  -4   8  -2   10.61   31.74   0
  -2   8   0  165.51   24.81   0
  -1  -2  -1   50.17   19.82   0
  -1  10  -1  588.12   30.98   0
   3  11  -2  502.99   32.04   0
   4   2  -1 1804.96   64.60   0
   4   9  -1  307.37   26.28   0
   5   2  -2  510.60   42.53   0
   6   8  -3  414.82   34.82   0
  -3   6   0  869.59   39.15   0
  -2  10  -2  388.93   30.66   0
  -1   6   1 1153.33   36.86   0
   0   3   1 2070.62   64.84   0
   0   7   1   43.86   15.43   0
   1   7   1 3576.09   54.81   0
   3  10  -1  506.45   30.34   0
   4  -3  -4    4.52   43.88   0
  -3   8  -1   10.80   24.87   0
  -3   9  -2  143.96   31.00   0
  -2   9  -1  234.76   25.94   0
   0   9   0  241.30   22.19   0
   1   4   1 5505.17   86.57   0
   2   9   0  661.53   30.31   0
   2  11  -2   -9.29   22.67   0
   3   3   0 1644.26   54.73   0
   3   8   0 1884.59   41.87   0
   4  10  -2  367.38   27.55   0
  -4   6  -1  114.06   31.23   0
  -2  -2  -1 4887.00  102.99   0
  -1   4   1 2341.39   61.33   0
  -1   5   1   24.75   17.73   0
  -1  11  -3   26.80   26.75   0
   1   6   1 1285.90   36.47   0
   1   9   0  790.63   30.20   0
   1  11  -2  767.42   31.70   0
   2  10  -1   45.16   22.39   0
   6   1  -4  600.87   53.85   0
   6   7  -3  822.30   38.84   0
   7   3  -5  101.44   38.29   0
   7   6  -5  140.35   39.64   0
  -3  10  -4  271.15   38.18   0
   0   6   1  489.59   24.81   0
   1   5   1  553.13   28.49   0
   1  10  -1  897.65   32.28   0
   3  11  -3  174.12   29.97   0
   4   8  -1 1367.51   37.31   0
   0   4   1  175.78   21.37   0
   3   7   0  327.06   23.04   0
   6   4  -3  746.37   41.61   0
   6   6  -3  272.06   30.14   0
   7   4  -5  320.01   41.01   0
   7   5  -5  561.87   43.79   0
   7   7  -6  168.67   41.36   0
  -3   5   0 2255.94   59.96   0
  -2   7   0 1656.41   43.95   0
  -2  10  -3  180.93   30.16   0
  -1  10  -2  159.99   26.83   0
   0   5   1 4308.53   68.43   0
   2   8   0   51.86   17.79   0
   2  11  -3  375.36   29.70   0
   3   9  -1  740.63   31.08   0
   3  10  -2  309.66   28.94   0
   4  10  -3  394.90   27.32   0
   6   5  -3   30.43   27.36   0
   1  11  -3   61.31   26.09   0
   3  -3  -3  151.16   35.80   0
   3   4   0  860.17   36.17   0
   3   6   0  803.14   30.74   0
   4   9  -2  598.54   29.87   0
  -5   5  -2  542.39   46.15   0
  -4   7  -2  362.15   35.75   0
  -4   8  -3  441.89   39.85   0
  -1   9  -1  616.29   29.41   0
   0   8   0  279.79   20.47   0
   1   8   0 1215.81   33.12   0
   3   5   0 2197.36   48.72   0
   4   7  -1  620.73   28.26   0
   5   3  -2  314.92   31.40   0
   7   6  -6  351.42   44.54   0
  -3   7  -1  969.91   37.93   0
  -3   9  -3  519.85   34.61   0
   2   9  -1  199.62   23.50   0
   2  10  -2  456.31   28.97   0
   6   7  -4   13.76   29.55   0
   6   8  -5   21.85   31.85   0
  -3   4   0  597.12   39.77   0
  -2   8  -1 1323.07   39.76   0
  -2   9  -2  871.72   34.92   0
   0   9  -1  422.11   24.94   0
   1  10  -2  432.22   25.28   0
   2   7   0 1408.62   36.63   0
   4   6  -1   86.54   20.38   0
   4  10  -4   13.97   26.82   0
   5   4  -2  900.36   40.18   0
  -4   5  -1 1480.05   54.85   0
  -3   8  -2  596.91   35.14   0
  -2  10  -4   93.85   29.65   0
  -1  10  -3  191.81   28.70   0
   1   9  -1  742.94   31.01   0
   3   8  -1   87.64   21.46   0
   3  10  -3  186.50   26.25   0
   5   5  -2  995.90   38.00   0
   7   5  -6   35.57   36.26   0
  -2   6   0 1373.59   40.63   0
   2   2   0 1809.78   65.36   0
   3   9  -2   72.22   22.24   0
   4   5  -1 2189.22   48.77   0
   4   8  -2  288.91   24.28   0
   4   9  -3   24.04   21.05   0
   6   2  -4 1762.84   62.67   0
   6   6  -4  335.36   32.07   0
   6   8  -6  328.19   38.41   0
   7   4  -6   61.21   39.95   0
   7   6  -7  -23.28   42.43   0
  -3   3   0  302.45   37.60   0
   1   7   0  113.02   18.23   0
  -4   8  -4  128.91   34.43   0
  -3   9  -4   -2.15   26.65   0
   0   7   0 2064.72   41.66   0
   2   6   0 1264.39   35.61   0
  -1   9  -2   53.17   21.54   0
  -1  10  -4  408.50   31.65   0
   1  10  -3  219.85   22.71   0
   2   8  -1 1012.78   32.80   0
   3   7  -1 1071.85   33.18   0
   6   5  -4  949.84   41.96   0
  -2   9  -3    8.41   23.20   0
   2   9  -2 1323.72   37.00   0
   4   7  -2  138.86   22.26   0
   4   9  -4  400.23   27.46   0
   5   1  -3  438.02   44.35   0
   6   3  -4  326.86   36.92   0
   6   4  -4  407.82   36.98   0
   7   5  -7  278.36   43.00   0
  -3   6  -1 1560.72   45.91   0
  -3   9  -5  339.76   37.30   0
  -1   6   0  509.60   25.20   0
   0   8  -1 1824.15   39.37   0
   0   9  -2  407.52   23.88   0
   1   8  -1   10.40   17.90   0
   1   9  -2  160.40   21.99   0
   2   5   0    2.30   15.61   0
   2  10  -4   22.25   24.27   0
   3   9  -3 1235.68   37.44   0
  -4   6  -2  504.86   36.13   0
  -4   7  -3  498.50   37.34   0
  -3   8  -3  138.27   27.28   0
  -2   7  -1  546.89   29.11   0
  -2   8  -2  247.12   25.35   0
   1   6   0 1135.96   33.93   0
   1  10  -4  497.31   28.46   0
   2   3   0 2325.45   61.11   0
   2   4   0 5186.73   79.12   0
   3   8  -2 1401.25   37.57   0
   4   8  -3  236.82   23.91   0
   5   6  -3 1012.33   38.54   0
  -4   4  -1  831.23   46.93   0
   0   6   0 1651.35   39.03   0
   3   6  -1 3576.92   56.76   0
   4   9  -5  273.17   28.43   0
  -3   7  -2  523.42   31.90   0
  -2   9  -4  760.43   34.64   0
  -1   9  -3  715.11   31.20   0
   4   6  -2 2701.17   50.81   0
   6   7  -7  119.90   35.72   0
   1  10  -5   31.46   24.25   0
   2   9  -3   10.81   21.66   0
   3   9  -4   73.30   23.14   0
   5   5  -3 1334.78   41.80   0
   5   8  -6   -3.36   30.50   0
   0   9  -3  -16.26   20.74   0
   1   5   0 3825.10   62.03   0
   1   9  -3  576.58   27.35   0
   2   8  -2  288.73   24.24   0
   4   8  -4  519.01   29.42   0
   6   5  -5   62.97   29.74   0
   6   6  -6   50.85   31.35   0
  -2   9  -5  119.35   28.71   0
  -1   5   0 2359.66   49.66   0
   3   5  -1  406.68   25.17   0
   4   7  -3  638.93   29.92   0
   1   7  -1 1632.94   38.42   0
   1   8  -2  907.55   31.44   0
   3   7  -2 1325.77   35.86   0
   3   8  -3  238.82   23.93   0
   3   9  -5  253.88   26.29   0
  -2   7  -8  420.01   53.79   0
  -1   6  -8  677.77   50.69   0
   0  -6 -12  250.54   37.21   0
   0  -5 -13  865.50   45.88   0
   0   1 -12   59.70   34.24   0
   0   3 -10  523.91   36.75   0
   1  -1  -9  185.07   26.34   0
   1   0  -4 2120.77   61.39   0
   1   1  -8   19.33   22.68   0
   1   2  -6  459.26   30.35   0
   1   2  -5 4375.62   75.35   0
  -1  -8 -14  132.50   44.42   0
  -1  -7 -15  228.90   44.23   0
  -1   3 -12   37.26   46.42   0
  -1   7  -5   17.46   38.85   0
   0  -1 -13  116.63   33.92   0
   0   2 -11  653.00   39.07   0
   1  -2  -8  519.47   31.46   0
   1  -2  -7 1655.63   49.34   0
   1  -1  -5 2023.95   58.35   0
   1   1  -4 5218.87   88.73   0
   0  -6  -7  553.74   49.94   0
   0  -2 -13  713.47   39.10   0
   1  -1  -8 2356.96   54.40   0
   1   1  -7 1175.76   40.32   0
   0  -6 -11  526.28   40.35   0
   0  -3 -13  351.89   36.38   0
   0   0 -12  694.02   44.03   0
   1  -1  -7  139.26   23.62   0
   1  -1  -6  892.31   39.92   0
   1   0  -7  814.77   35.85   0
   1   0  -5  151.45   24.15   0
   1   1  -6  799.21   35.76   0
   1   1  -5 1105.57   41.23   0
  -2   8  -4  384.54   52.78   0
  -2   8   0  192.73   53.19   0
  -1  -6 -15   24.26   40.48   0
  -1   5  -9  346.38   42.23   0
  -1   6  -7   53.16   37.43   0
   0  -5 -12   17.31   33.06   0
   1   0  -6 3726.77   69.34   0
  -2   6  -9  509.17   53.42   0
  -2   7  -7  393.58   48.82   0
  -1  -8 -13  387.36   50.10   0
  -1  -3 -15   26.74   41.28   0
  -1   6   1 1299.85   86.80   0
  -1   7  -3  337.11   42.69   0
   0  -6 -10  597.89   41.47   0
   0  -1 -12  540.83   37.08   0
   0   2 -10    3.75   29.27   0
   0   3  -9  697.73   38.18   0
  -1  -7 -14   78.31   40.45   0
  -1  -5 -15  341.89   44.99   0
  -1   1 -13   -3.58   38.38   0
   0  -6  -9   72.40   32.84   0
   0  -6  -8 1630.43   62.24   0
  -2  -8 -16  366.44   51.00   0
  -1  -1 -14    1.48   39.04   0
  -1   2 -12  363.72   39.11   0
  -1   3 -11  384.98   42.33   0
   0  -5  -5   35.56   36.46   0
   0  -2 -12   -2.40   27.33   0
  -3   7  -8  128.15   54.85   0
  -2   5 -10   37.46   44.91   0
  -2   8  -2  257.80   46.70   0
  -1   5  -8  169.81   39.26   0
  -1   6  -6 1147.36   51.22   0
   0  -5 -11  905.97   44.93   0
   0   0 -11   21.11   32.01   0
  -1  -8 -12  956.08   55.34   0
  -1  -2 -14  392.77   38.84   0
   0   1 -10 1036.89   42.46   0
   0   3  -8  210.56   29.70   0
  -2  -7 -16  103.58   45.70   0
  -2   4 -11  150.47   47.11   0
  -2   6  -8    9.45   41.60   0
  -2   7  -6    8.29   44.92   0
  -1  -6 -14  859.43   49.38   0
  -1  -1   2  176.16   24.01   0
  -1   0 -13  362.23   41.87   0
   0   3   0 3910.72  132.56   0
   0   4  -6  257.98   27.61   0
  -1  -5 -14  378.03   42.76   0
  -1  -3 -14  425.18   39.95   0
   0  -5 -10   22.69   26.76   0
  -1  -8  -7  842.30   74.33   0
  -1   1 -12  466.48   39.24   0
  -1   2   3  292.27   34.71   0
  -1   3 -10  275.40   34.98   0
  -1   6  -5  973.40   48.74   0
   0  -3 -11    9.92   25.48   0
  -3   6  -9   25.69   51.12   0
  -1  -8 -11   22.15   38.19   0
  -1  -1 -13  531.26   40.22   0
  -1   2 -11   79.43   30.26   0
  -1   5  -7  607.37   42.85   0
  -3   7  -7  289.41   55.93   0
  -2  -9 -14    5.36   44.11   0
  -2   5  -9  515.71   49.61   0
  -2   7  -5  904.85   57.73   0
   0  -5  -9 1972.21   58.00   0
   0   2  -8  390.85   30.33   0
  -1  -6 -13  147.65   35.19   0
  -1   6  -4  445.66   39.63   0
   0  -1 -10  130.64   28.93   0
   0   4  -4   98.25   22.82   0
  -2  -9  -4  345.37   71.26   0
  -2  -7 -15  117.57   41.23   0
  -2   1 -13  415.43   46.00   0
  -2   4 -10  645.25   48.20   0
  -2   6  -7  512.61   47.03   0
  -1  -7 -12   25.44   35.00   0
  -1  -2 -13    2.74   29.51   0
  -1   0 -12    5.25   34.90   0
   0  -5  -8 2081.92   62.83   0
   0  -2 -10  337.32   32.05   0
   0   3  -6   17.14   21.79   0
   0   4  -3 2457.43   64.56   0
  -3  -9 -16  359.83   55.94   0
  -2  -1 -14  626.06   53.76   0
  -2   2 -12   50.74   37.24   0
  -1  -8  -9  352.05   47.00   0
  -1  -8  -8 1008.62   65.95   0
  -1  -5 -13  334.69   37.79   0
   0  -5  -7  115.87   29.72   0
   0   0  -9  704.67   35.38   0
  -2  -6 -15  579.96   48.30   0
  -2  -5 -15  176.35   43.31   0
  -2   7  -4   10.73   42.03   0
  -1   3  -9  427.78   34.79   0
  -1   5  -6  135.63   34.96   0
  -3   6  -8  314.58   48.30   0
  -2  -8 -14  494.95   47.79   0
  -1  -1 -12  268.58   35.93   0
   0   1  -8 1544.51   45.77   0
  -3  -8 -16   24.02   46.13   0
  -3   8  -3  165.91   49.79   0
  -2   0 -13  119.41   40.44   0
  -2   5  -8  529.48   44.93   0
  -1   6  -2    6.10   28.30   0
  -2  -2 -14  101.66   39.56   0
  -2   6  -6  141.87   38.49   0
  -1  -7 -11  509.54   41.53   0
   0  -3  -9  492.99   31.46   0
   0  -2  -9 1485.35   44.57   0
   0   2   0 2352.61  127.11   0
  -2   1 -12   63.62   34.85   0
  -1  -2 -12  776.27   40.15   0
  -1   5  -5 2209.94   59.87   0
   0   0  -8  675.36   34.14   0
   0   3  -1  208.35   33.53   0
  -3   5  -9  224.80   45.87   0
  -2  -7 -14  325.87   42.47   0
  -2  -3 -14  192.67   34.31   0
  -1  -5 -12 1006.08   46.12   0
   0   1  -7   18.67   21.57   0
  -3  -9 -15   31.55   49.36   0
  -2  -1 -13  230.09   39.21   0
  -1   2  -9  151.71   30.96   0
  -1   3  -8  596.58   36.67   0
   0   3  -3 1860.55   57.25   0
  -3   2 -12  352.04   49.80   0
  -3   4 -10   34.79   43.54   0
  -3   6  -7   97.63   41.72   0
  -3   7  -5   24.39   45.51   0
  -2  -9 -12  311.05   47.04   0
  -2  -8 -13  392.01   46.77   0
  -2  -6 -14   16.42   35.43   0
  -2  -5 -14  254.00   40.40   0
  -1  -7 -10  547.51   43.73   0
  -1  -1 -11   98.86   30.32   0
   0  -3  -8 1676.32   48.76   0
   0  -1  -8  222.77   24.44   0
   0   3  -2 5816.11  108.12   0
  -4   6  -8    9.43   52.46   0
  -2   5  -7  161.58   35.78   0
  -2   6  -5  514.18   45.74   0
   0  -2  -8 2907.43   60.67   0
   0   2  -5  413.73   29.76   0
  -4   7  -6  135.86   58.69   0
  -3  -8 -15  373.75   46.40   0
  -3   8  -1    0.81   48.08   0
   0   0  -7 1361.66   42.92   0
  -2  -2 -13  588.02   40.29   0
  -1  -2 -11  178.33   32.00   0
  -1   0 -10  409.20   36.26   0
  -3  -7 -15  332.99   47.32   0
  -3   0 -13  480.77   46.89   0
  -3   5  -8  193.16   44.56   0
  -2  -7 -13    2.44   35.74   0
  -2   1 -11  297.40   36.54   0
  -2   7   1   25.15   47.13   0
  -1  -3 -11 1276.17   45.27   0
  -1   3  -7   13.38   25.56   0
   0  -3  -7 2083.33   56.49   0
   0  -1  -7 1487.45   46.19   0
   0   2  -4 2867.17   67.44   0
  -4   5  -9  178.17   48.77   0
  -3  -6 -15    2.75   42.28   0
  -3  -2 -14  591.57   51.62   0
  -2  -9 -11  284.11   45.96   0
  -2  -3 -13  378.01   35.43   0
  -2   2 -10   30.62   29.48   0
  -1  -7  -9  376.95   41.65   0
  -1   1  -9 1551.80   48.68   0
  -1   2  -8 1073.68   43.28   0
   0  -2  -7    7.17   19.56   0
  -3   1 -12  419.24   44.78   0
  -3   4  -9  547.97   49.99   0
  -2  -1 -12  190.66   37.46   0
  -1   5  -3  537.77   38.46   0
   0   0  -6   40.75   21.35   0
   0   1  -5 1698.33   51.15   0
  -4   4 -10  287.23   51.52   0
  -3   2 -11    2.37   41.14   0
  -3   6  -6  386.81   46.67   0
  -2  -8 -12   73.08   40.68   0
  -2  -6 -13  438.64   39.07   0
  -2  -4 -13   47.96   32.65   0
  -2   5  -6  933.18   46.85   0
  -1  -6 -10  299.58   36.02   0
   0  -3  -6  519.37   37.17   0
   0   2  -3  695.67   38.99   0
  -4   6  -7  452.55   50.88   0
  -3  -3 -14  394.17   43.23   0
   0   2  -1 2207.17   86.60   0
  -2   0 -11   15.72   32.79   0
  -1  -7  -8 2148.61   74.64   0
   0  -2  -6 2387.80   61.56   0
   0  -1  -6 1165.70   44.14   0
   0   2  -2 2323.21   73.75   0
  -3  -8 -14   94.48   39.97   0
  -2  -2 -12   75.05   31.85   0
  -1   3  -6 1967.55   52.04   0
   0   1  -4  916.18   41.90   0
  -3  -4 -14   -0.99   37.72   0
  -3   5  -7  755.94   51.07   0
  -3   7  -3  216.67   49.73   0
  -2  -9 -10  683.03   50.16   0
  -2  -7 -12  740.76   45.72   0
  -2   1 -10  679.69   40.58   0
  -1  -3 -10    9.21   23.05   0
  -1   1  -8   37.15   23.84   0
  -1   2  -7  548.86   33.25   0
   0   0  -5 6100.03   93.73   0
  -4  -9 -15  342.55   52.32   0
  -4   5  -8  380.62   49.01   0
  -3  -7 -14   48.34   39.71   0
  -3   0 -12   24.18   35.51   0
  -2  -3 -12  695.85   38.81   0
  -2   3  -8   32.96   27.68   0
  -2   6  -3    7.51   31.73   0
  -1  -6  -9 1865.78   59.60   0
   0  -3  -4   11.75   26.03   0
  -3  -9 -13   27.01   43.93   0
  -3  -6 -14  484.50   43.51   0
  -3  -2 -13  -12.96   34.68   0
  -3   6  -5  420.75   48.05   0
  -2   5  -5   11.60   31.53   0
  -1  -7  -7   40.87   38.00   0
  -1  -1  -9   48.40   23.36   0
  -1   5   1   32.68   40.90   0
   0  -2  -5  515.27   36.22   0
   0  -1  -5  117.28   23.00   0
  -5   6  -7   63.23   55.67   0
  -4   1 -12  280.87   44.58   0
  -4   4  -9   11.29   43.92   0
  -3 -10 -12   43.79   42.32   0
  -3   4  -8  170.03   38.01   0
  -2  -6 -12  891.93   45.18   0
  -2  -1 -11  599.89   38.26   0
   0   1  -3 2970.12   77.03   0
  -4  -8 -15   29.81   43.55   0
  -4  -6 -15  478.52   52.15   0
  -4   3 -10  231.63   46.99   0
   0   0  -4 1929.55   59.93   0
  -4 -10 -14  237.87   53.34   0
  -4   7  -4   43.14   50.98   0
  -3  -3 -13  305.72   35.91   0
  -1   0  -8 1120.95   40.82   0
  -1   3  -5 1126.06   42.85   0
  -4  -3 -14   95.85   43.45   0
  -2  -9  -9  184.71   43.33   0
  -2  -2 -11  730.16   40.58   0
   0  -2  -4 4256.92  100.06   0
   0   1  -2  213.16   31.40   0
  -5   5  -8   94.66   49.29   0
  -3  -8 -13  277.17   40.56   0
  -3   5  -6   20.72   35.50   0
  -2   1  -9   30.08   31.57   0
  -1  -4  -9  316.81   30.36   0
  -1  -3  -9  942.39   39.19   0
  -1   1  -7 1826.09   49.53   0
  -1   2  -6  416.22   30.26   0
   0  -1  -4 2029.38   64.74   0
   0   1  -1 3758.32  128.37   0
  -3  -4 -13  516.65   37.48   0
  -2  -7 -11  595.41   43.08   0
  -2   3  -7  704.58   38.34   0
  -1  -6  -8  460.48   39.14   0
   0   0  -3  963.64   49.31   0
  -5   4  -9  410.00   52.59   0
  -4   0 -12  697.09   51.16   0
  -4   5  -7   14.68   42.44   0
  -3  -7 -13  442.80   43.16   0
  -3   6  -4  150.20   41.46   0
  -2  -3 -11  242.69   30.89   0
  -1  -1  -8 2105.81   51.82   0
   0  -2  -3 2230.06   90.21   0
  -4  -9 -14   20.18   39.42   0
  -3  -6 -13  244.94   36.64   0
  -3   4  -7  629.23   45.59   0
  -2  -8 -10   96.58   37.93   0
  -2  -6 -11  137.29   34.05   0
  -2  -1 -10  116.58   31.03   0
  -5   6  -6  403.56   57.68   0
  -4  -2 -13  640.08   49.06   0
  -4   1 -11  326.23   37.09   0
  -4   4  -8  484.13   48.59   0
  -2  -4 -11  405.53   32.67   0
   0  -1  -3   86.21   24.94   0
  -5  -9 -15    9.62   45.94   0
  -4  -8 -14  225.70   42.95   0
  -3   2  -9  244.31   33.03   0
  -1  -2  -8  165.60   26.59   0
  -1   0  -7  120.49   23.57   0
  -1   3  -4 1314.21   46.52   0
  -4  -7 -14  612.96   49.27   0
  -4  -6 -14   64.57   41.39   0
  -3  -3 -12   58.60   33.41   0
  -2   0  -9  512.20   34.26   0
   0   0  -2 3128.74  102.21   0
  -3  -1 -11  216.81   37.94   0
  -2  -2 -10  537.54   36.52   0
  -1   1  -6  155.87   24.53   0
  -1   5   3 1215.36   40.73   0
  -1  10   1  576.13   38.07   0
   0  -1  -3   93.54   21.64   0
   0   8   7  499.96   26.80   0
   0  10   7 1205.48   35.49   0
   0  12   6  627.70   31.46   0
   0  13   4   12.63   28.41   0
   1   6   8  465.36   28.49   0
   1  12   9  488.34   27.94   0
   3  11  12  335.57   29.14   0
  -1   9   3   31.77   22.08   0
   0   2   3 1921.71   66.64   0
   0   9   7  316.16   25.92   0
   0  13   3  300.47   34.65   0
   1   9   9 1717.18   43.60   0
   1  11   9    3.25   21.72   0
   6   7  12  673.27   54.92   0
  -1   4   2   57.42   18.80   0
   0   3   4   15.48   17.84   0
   1  10   9  662.47   31.65   0
   1  14   7  170.86   29.90   0
   2   8  10  133.34   25.07   0
   3   6  10   31.44   27.78   0
   4   5  10  206.61   36.51   0
  -1   1  -4 3733.97  112.37   0
  -1   6   3   18.58   17.67   0
   0   6   6  456.04   25.94   0
   0  12   5   88.99   26.67   0
   2   6   9  186.53   24.35   0
   2  13  10  513.28   32.15   0
   4   9  12  243.81   35.77   0
  -1   8   3 1871.97   45.74   0
  -1   9   2 1467.40   44.20   0
   5   6  11  660.33   49.91   0
  -1   9  -1  604.13   43.79   0
   1   5   7 1434.93   42.16   0
   1  12   8   86.78   21.07   0
   1  14   6  329.21   31.80   0
   2  12  10  393.23   29.38   0
  -1   9   0  579.20   38.04   0
  -1   9   1  168.66   29.06   0
   0   7   6   76.54   18.88   0
   0  12   4  330.28   30.32   0
   2  10  10  739.59   34.09   0
   2  11  10   29.94   26.10   0
   2  14   9  533.55   34.28   0
   5  -2   3  746.21   87.51   0
   6  10  13    5.88   37.25   0
  -1   2  -1   35.15   36.77   0
   0   8   6 2440.31   47.35   0
   0   9   6 1050.81   32.96   0
   0  11   5   94.54   24.48   0
   1  13   7  225.85   26.37   0
   4   4   9 1368.44   57.50   0
  -1   5   2 1154.17   42.32   0
  -1   8   2  720.13   33.45   0
   0   5   5   36.32   18.14   0
   0  12   3  568.28   36.73   0
   1   8   8  951.58   33.35   0
   1  11   8  806.58   30.78   0
   1  14   5  275.01   31.35   0
   3  11  11   95.80   25.34   0
   3  12  11  230.76   28.08   0
   4  12  12   47.01   27.80   0
   0  12   2    5.17   31.60   0
   1   9   8   22.87   20.69   0
   1  10   8  683.08   30.34   0
   2   5   8 1440.57   44.44   0
   2   7   9  611.31   31.15   0
   2  13   9   86.71   22.23   0
   6   6  11  106.05   44.05   0
   6   8  12   78.64   37.23   0
  -1   7   2  102.14   21.98   0
   0  -1  -2 3416.43   95.48   0
   1   4   6 2456.42   57.46   0
   1  13   6  486.96   32.92   0
   1  14   4  143.07   31.93   0
   5   5  10  403.62   45.75   0
  -1   1  -6  133.19   31.78   0
  -1   4   1 2355.57   66.89   0
  -1   8  -2  860.66   52.68   0
  -1   8   1  261.39   28.09   0
   0  11   4  878.29   35.02   0
   1   6   7  304.40   24.92   0
   1  14   3  510.39   42.09   0
   0   6   5 1206.96   37.42   0
   2   8   9 1725.97   44.48   0
   2  12   9   50.66   22.34   0
   5   7  11  457.85   38.28   0
   5  10  12   38.28   33.84   0
   7   8  12  519.18   51.08   0
  -1   8  -1   32.20   28.70   0
  -1   8   0 1961.53   56.41   0
   0   4   4 4152.04   74.60   0
   0   9   5 1277.79   36.35   0
   1  -2  -1  331.90   35.44   0
   1  11   7  314.18   25.49   0
   2  11   9  678.08   31.78   0
   3   4   8 1565.15   54.80   0
   3   8  10  773.74   35.17   0
   3  13  10    4.50   27.00   0
  -1   7   1  642.17   34.40   0
   0   7   5 2145.92   47.13   0
   0  11   3   32.68   26.09   0
   1  13   5   15.66   26.51   0
   2   9   9  198.97   25.39   0
   2  10   9  413.82   30.14   0
   2  13   8  305.12   28.31   0
   3  -2   2 1570.33  104.44   0
   4  13  11   22.63   29.46   0
   0   8   5   27.58   16.81   0
   1   7   7   45.86   18.73   0
   2   4   7 1927.47   52.54   0
   2  14   7  336.39   29.72   0
   3   9  10   63.94   23.15   0
   3  12  10  226.61   29.53   0
   6   5  10  197.24   44.05   0
   0  10   4  347.99   27.95   0
   1  10   7   22.45   20.53   0
   2   6   8 2196.10   49.87   0
   3  10  10  141.77   25.44   0
   3  11  10  548.92   31.94   0
   3  14   9    5.08   25.55   0
   4   2   7   13.48   35.71   0
   4  10  11   57.80   27.48   0
   4  11  11  704.37   34.94   0
   4  12  11  546.83   34.49   0
   5   4   9  166.25   41.24   0
   0  11   2  380.67   32.83   0
   1   8   7  824.75   31.34   0
   1   9   7 1486.01   38.70   0
   1  13   4  364.52   30.87   0
   5   8  11    9.14   30.60   0
   6   7  11  388.29   45.35   0
   6  10  12  431.13   40.52   0
   7   9  12  210.32   44.00   0
  -1   7  -3  302.80   45.98   0
  -1   7   0  193.43   28.45   0
   0  11   0  191.87   35.13   0
   0  11   1  244.73   33.03   0
   1   5   6  463.97   28.45   0
   2  12   8  513.15   27.04   0
   2  14   6  198.29   29.90   0
   4   1   6  590.08   62.25   0
   0   5   4 3486.89   64.99   0
   1  12   5  462.67   30.40   0
   1  13   3   58.11   25.97   0
   3   3   7  890.41   47.65   0
   3  13   9  437.67   30.73   0
   4   5   9  661.80   41.34   0
   6  11  12  133.50   33.94   0
  -1   7  -1 1225.46   52.35   0
   0  10   3  966.52   37.47   0
   1  13   2  193.61   34.35   0
   2   7   8   70.89   20.84   0
   2  11   8  411.85   27.19   0
   5   6  10   -9.66   33.05   0
   7   7  11  435.25   46.29   0
  -1   7  -2  811.62   49.01   0
   2   3   6  216.61   30.07   0
   3  14   8  335.84   31.96   0
   7  10  12    5.13   36.02   0
  -1   6   0  507.10   34.87   0
   0   6   4   27.17   16.58   0
   0   8   4 2458.17   48.34   0
   1  10   6 1381.69   36.12   0
   2   8   8  698.87   30.39   0
   2  10   8  152.39   24.02   0
   2  14   5  120.82   28.11   0
   3  12   9  480.96   31.81   0
   5   3   8  618.45   53.05   0
  -1   0  -5   76.95   24.72   0
   0   7   4 2145.77   46.73   0
   0  10   2 1275.39   42.23   0
   1   6   6 1337.63   39.19   0
   1  12   4  291.45   28.43   0
   2   5   7  311.43   25.48   0
   1   9   6  489.11   27.30   0
   2  12   7   44.64   20.10   0
   2  13   6   60.05   24.52   0
   2  14   4  395.94   33.58   0
   3   8   9  138.27   24.31   0
   3  11   9   -5.05   25.70   0
   4  12  10  412.34   29.80   0
   0   9   3  810.33   32.54   0
   1   7   6 1109.22   35.05   0
   1   8   6  278.74   24.98   0
   3   2   6  387.84   41.80   0
   3   9   9  727.00   33.31   0
   3  10   9  749.81   33.86   0
   3  13   8  352.45   25.75   0
   4  10  10  855.02   34.03   0
   4  11  10   -8.17   23.87   0
  -1   6  -1 2070.20   64.92   0
   0  10   1   18.84   27.97   0
   1   4   5 2171.83   55.41   0
   1  12   3  191.69   29.51   0
   2  14   3   27.75   31.86   0
   4   4   8   35.99   30.72   0
   4   6   9  269.25   30.38   0
   6   9  11  178.21   36.50   0
   7   8  11   22.03   38.67   0
  -1   6  -4  389.69   55.13   0
   0  -2  -3 1990.22   58.60   0
   0   4   3  819.14   37.81   0
   2   2   5  119.51   30.90   0
   2  11   7  607.56   29.84   0
   5   5   9  354.38   37.96   0
   0  10  -1   40.39   31.60   0
   0  10   0  795.43   41.92   0
   2   6   7 1404.11   41.20   0
   2  13   5  532.13   32.29   0
   2  14   2  443.86   42.86   0
   4  13   9  150.03   28.17   0
   6  10  11   56.62   32.02   0
   6  11  11  442.85   36.69   0
   7   6  10  -26.44   43.85   0
   0   9   2   85.25   24.10   0
   1  10   5   10.60   18.67   0
   1  11   4   11.46   23.47   0
   1  12   2  806.01   39.00   0
   3   6   8  182.32   25.56   0
   3  12   8   33.45   23.03   0
   6   3   8  460.42   51.94   0
  -1   6  -2   13.18   29.74   0
   2  10   7  789.13   31.29   0
   3  14   6  217.73   29.29   0
  -1   5  -1  688.00   43.59   0
  -1   6  -3 1659.53   69.99   0
   0   5   3  855.71   36.25   0
   0   7   3  351.81   24.88   0
   1  12   0  435.55   41.24   0
   1  12   1   23.11   31.98   0
   2   7   7 2129.32   46.84   0
   2   9   7  118.95   21.08   0
   3  13   7  176.05   23.38   0
   4  12   9  214.04   28.27   0
   5  12  10  129.68   25.74   0
   6   7  10  225.18   37.52   0
   7  10  11  382.73   38.93   0
   8   9  11  108.59   41.79   0
   0   6   3 1432.10   41.41   0
   1   5   5 3372.54   63.05   0
   1   9   5 1058.16   33.05   0
   2   4   6 1653.73   49.75   0
   2   8   7  689.54   29.73   0
   2  13   4   -2.94   26.71   0
   3  11   8  762.76   34.46   0
   5  11  10  725.31   33.13   0
   2  11   6  848.12   32.18   0
   3  -3   1 1322.76   78.56   0
   4  11   9  569.01   31.33   0
   6   5   9  537.82   48.37   0
   0   9   1 1177.46   39.87   0
   1   8   5 1365.31   37.39   0
   1  11   3  721.33   31.95   0
   3  10   8 1008.89   35.42   0
   3  14   5  266.58   30.02   0
   4   8   9  371.20   28.48   0
   4  10   9  555.71   32.81   0
   4  13   8  449.10   31.97   0
   1   6   5  865.60   33.39   0
   1   7   5  648.98   28.80   0
   2  13   3  398.05   31.54   0
   3   8   8 1108.08   36.38   0
   3   9   8   21.90   22.57   0
   3  12   7  927.03   33.36   0
   4   3   7 1183.78   54.47   0
   4   5   8 2221.45   57.95   0
   4   9   9   36.73   22.85   0
   4  14   7  400.87   33.51   0
   5   1   6  363.15   56.19   0
   5  13   9  265.95   32.28   0
   7   7  10  546.90   44.34   0
   5   4   8 1757.58   60.98   0
   6  12  10  262.52   33.89   0
  -1   5  -2 1132.20   58.08   0
   0   3   2  628.60   38.74   0
   0   9   0  231.05   31.38   0
   1  11   2  238.92   27.42   0
   2  10   6   26.21   20.80   0
   2  13   2  214.63   28.96   0
   3  14   4    7.00   27.46   0
   6   2   7   45.58   46.61   0
   6   9  10  587.63   38.22   0
   2   5   6 2017.65   50.01   0
   2  13   1   62.73   34.71   0
   4  12   8  724.85   35.32   0
   5  12   9  449.99   32.38   0
   6  10  10  282.65   31.91   0
   0   9  -1  425.75   35.80   0
   1   9   4  877.28   30.44   0
   2  11   5  304.41   24.49   0
   2  12   4  281.68   27.20   0
   3  11   7  641.62   30.37   0
   5   7   9  161.66   32.52   0
   7   8  10  581.97   39.69   0
   0   8   1  825.67   36.30   0
   0   9  -2  385.40   37.47   0
   1  10   3  544.91   30.16   0
   1  11   1  418.28   33.64   0
   2   9   6  786.77   30.16   0
   3  14   3  363.94   33.87   0
   4  13   7  579.37   28.67   0
   8   8  10   43.95   41.29   0
   2   6   6 1209.59   38.49   0
   3  12   6   78.05   20.98   0
   4  11   8   65.62   25.22   0
   5  11   9   54.42   22.36   0
   6   6   9   43.92   32.99   0
   7   9  10   19.19   31.72   0
   0   4   2 1185.55   46.33   0
   0   6   2  699.32   32.64   0
   1   4   4  983.39   39.69   0
   1  11   0  487.87   37.06   0
   2   3   5 3717.54   79.46   0
   2   7   6  155.57   20.71   0
   2   8   6 1410.69   37.83   0
   3  10   7   39.59   22.22   0
   3  14   2   30.64   31.56   0
   5  10   9  270.75   26.29   0
   5  13   8  261.89   31.11   0
   1   8   4  170.91   20.24   0
   1  11  -1   68.07   33.25   0
   2  12   3  529.56   30.56   0
   3  14   1  180.48   37.93   0
   4  10   8  308.17   27.61   0
   6   4   8   24.25   37.90   0
   0  -2  -2 1478.72   56.86   0
   0   5   2  519.56   30.09   0
   2  10   5 1189.30   35.07   0
   3   9   7 1428.58   39.08   0
   3  13   4  492.66   33.31   0
   4   2   6 1825.45   71.03   0
   4  14   5  125.66   28.87   0
   6  12   9   16.56   25.15   0
   8  10  10  275.46   36.99   0
   0   8   0  251.70   28.57   0
   1   7   4 1394.32   39.05   0
   1  10   2   82.65   24.54   0
   3   7   7   20.96   19.85   0
   3   8   7 2647.23   49.89   0
   4   4   7 2159.04   61.76   0
   4   9   8 1192.74   38.54   0
   4  12   7   10.44   22.93   0
   5   5   8  316.37   34.17   0
   8   6   9   22.00   41.23   0
   1   5   4  307.34   25.38   0
   2  12   2   57.51   26.23   0
   3  11   6  321.81   25.90   0
   4  13   6   13.36   20.19   0
   5   3   7  443.65   44.16   0
   5  12   8   47.78   24.53   0
   6  11   9  687.36   35.89   0
   7   4   8  897.09   55.05   0
   1   6   4 3105.23   56.83   0
   3  12   5  416.73   26.70   0
   2   9   5  551.12   26.31   0
   2  12   1  689.15   35.09   0
   3  13   3  223.50   30.05   0
   5  13   7  129.42   27.47   0
   1  10   1 1569.20   43.47   0
   4  11   7  420.96   28.76   0
   7   7   9   46.91   33.05   0
   2   4   5 1444.07   46.16   0
   2  11   3  154.13   24.00   0
   3  10   6  977.94   34.04   0
   0  11  -1  599.83   36.75   0
   1  -3  -6 1428.84   88.77   0
   1   0  -2 2869.80   96.41   0
   1  10  -5   19.08   28.83   0
   1  10  -4  487.03   32.11   0
   1  10  -3  228.69   27.97   0
   2  -1 -11  473.74   40.01   0
   2   0 -12  674.68   45.59   0
   2   3 -12  583.26   42.34   0
   2   7  -8  606.56   36.29   0
   2   7  -3 1651.33   40.72   0
  -1  12  -1   99.08   32.23   0
   1   3   0   28.11   14.39   0
   1   8   0 1172.38   34.26   0
   1   9  -1  781.75   30.92   0
   2  -1  -8   99.92   26.61   0
   2   1 -12   71.26   31.93   0
   2   2 -12  155.02   33.41   0
   2   6  -9  410.95   35.58   0
   2   7  -7  438.28   31.42   0
  -1   9   3   15.23   25.22   0
   0   8   2 1124.50   39.19   0
   0  11  -2   10.59   28.18   0
   1  -4  -9   29.58   39.83   0
   2  -1 -10  162.69   32.65   0
   2   3  -3 1089.96   37.03   0
   2   6  -3   70.25   18.05   0
   2   7  -6  327.65   29.62   0
   2   7  -5  818.71   34.89   0
   2   7  -4   14.32   21.51   0
  -3   8   5  978.47   64.34   0
  -2   9   4  161.93   31.39   0
  -1  11   1  390.91   32.58   0
   0  11  -3  450.24   37.40   0
   1  -4 -12  212.47   45.83   0
   2   0 -11   26.74   30.29   0
   2   3 -11   85.76   33.55   0
   2   6  -8   40.63   23.61   0
   0   4   2 1251.88   55.10   0
   0  10   0  869.93   36.72   0
   1   7   0  125.78   19.47   0
   1   9  -2  122.76   22.01   0
   2   2  -4 4116.08   68.45   0
   2   4  -3 2283.61   47.72   0
   2   5  -3  696.14   28.80   0
  -2  12   0   32.76   35.82   0
  -1  10   2  283.39   30.67   0
   0   9   1 1166.94   38.17   0
   1   9  -3  561.55   28.77   0
   2   1 -11  324.05   33.91   0
   2   1  -5 1323.82   42.42   0
   2   2 -11  434.66   35.35   0
   2   4 -10  530.71   35.83   0
   2   6  -7  790.50   34.56   0
   2   6  -4  918.78   31.47   0
  -2  11   2  507.05   38.68   0
   1  -4 -11  701.79   54.29   0
   1  -4 -10  989.95   61.34   0
   1   4   0 3687.35   69.43   0
   1   8  -1    9.48   16.97   0
   1   9  -4   44.99   22.67   0
   2   0 -10 1242.36   45.88   0
   2   0  -7 1278.55   44.55   0
   2   3 -10  386.58   34.79   0
   2   5  -8  414.57   29.24   0
   2   6  -6   75.77   23.21   0
   2   6  -5  611.72   30.03   0
  -2  10   3  445.93   36.89   0
  -1  -3  -1 1348.28   48.99   0
  -1  11   0  320.78   31.36   0
   0  10  -1   60.26   25.15   0
   1   6   0 1097.21   34.85   0
   2   0  -9  743.31   39.04   0
   2   0  -8  769.61   38.15   0
   2   1 -10  502.52   34.87   0
   2   3  -4 1683.10   42.70   0
   2   5  -4 1057.00   33.44   0
  -1  -2   0 6188.87  105.36   0
  -1   8   3 1858.62   52.58   0
   0   5   2  517.15   34.70   0
   1   5   0 3750.52   64.64   0
   2   2 -10   65.39   26.34   0
   2   4  -4   33.27   17.42   0
   2   5  -7  279.16   26.15   0
   2   5  -5   62.88   19.21   0
  -1  11  -1   88.72   29.94   0
   1  -1 -14   26.88   39.46   0
   1   8  -2  863.64   32.05   0
   2   1  -9   64.66   24.72   0
   2   4  -8 1226.36   37.92   0
  -3   3   5  456.87   47.23   0
  -1  11  -3   19.54   34.20   0
  -1  11  -2  482.82   36.47   0
   1   0 -14  225.88   43.81   0
   1   2  -1 4075.52   85.85   0
   1   7  -1 1595.89   39.41   0
   1   8  -6   12.96   26.76   0
   1   8  -3  461.04   28.74   0
   2   2  -9  808.20   38.35   0
   2   3  -5 1439.03   39.89   0
   2   4  -7   88.03   22.02   0
   2   4  -5 1662.62   41.06   0
  -2   8   4 1082.81   50.23   0
  -2  11   1  208.29   31.89   0
  -1  10   1  531.42   31.57   0
   1   7  -8  158.46   32.71   0
   1   8  -5  525.44   32.83   0
   1   8  -4  238.45   26.60   0
   2   2  -6 1774.10   44.91   0
   2   4  -6 1983.26   44.49   0
  -1   9   2 1465.14   44.18   0
   1   2 -13  157.85   38.87   0
   2   3  -7 1398.85   39.01   0
   2   3  -6   11.57   16.76   0
  -3   7   5   22.74   41.25   0
   1  -2 -13   30.69   37.75   0
   1   6  -9   81.63   27.23   0
   1   6  -1  912.41   31.73   0
   1   7  -7  619.27   35.73   0
   1   7  -2 1525.74   38.42   0
  -2  11   0  311.03   30.91   0
  -1   7   3 1597.30   51.41   0
   0   9  -6  119.71   33.20   0
   1  -3 -12  153.40   37.52   0
   1   1 -13   11.87   33.54   0
   1   3 -12   21.00   36.24   0
  -2  10   2  383.65   35.02   0
  -1  -1   1 1400.70   54.91   0
  -1  10   0    0.81   22.77   0
   0   9  -5  210.51   27.21   0
   1  -1 -13  663.86   45.84   0
   1   0 -13  425.45   41.36   0
   1   4 -11  255.83   35.87   0
   1   7  -6  804.23   37.40   0
   1   7  -3    2.85   20.08   0
  -3   9   4  773.38   46.59   0
  -2   9   3 1100.35   44.90   0
   0   9  -4  657.08   31.87   0
   0   9  -3    0.67   20.84   0
   1  -3  -7 1527.54   74.00   0
   1   3  -1 4042.45   75.02   0
   1   6  -8 1000.24   38.53   0
   1   7  -5   15.35   23.08   0
   1   7  -4 1213.78   37.48   0
  -3  10   3  179.79   33.38   0
  -3  11   1  176.92   34.50   0
  -2  11  -2   39.81   30.40   0
  -1  10  -1  575.22   32.51   0
   1   2 -12  374.80   39.48   0
   1   4  -1  388.14   25.73   0
  -1   9   1  174.72   27.33   0
  -1  10  -3  207.64   31.76   0
  -1  10  -2  202.05   28.83   0
   0   8  -7   51.50   33.14   0
   1  -3 -11  477.23   42.01   0
   1   1  -2  178.10   24.37   0
   1   3 -11  584.95   39.21   0
   1   5  -9  174.85   26.91   0
   1   6  -7    8.62   24.09   0
   1   6  -2   22.67   17.14   0
  -4   4   6   22.40   43.99   0
  -2   7   4  865.17   49.04   0
  -1   6   3   19.70   23.02   0
  -1   8   2  735.42   34.79   0
   0   0 -15  160.78   47.08   0
   0   2   1 2728.70  110.37   0
   1  -2 -12  814.20   46.52   0
   1   1 -12  559.74   39.47   0
  -3  11   0  198.36   36.85   0
  -2  10   1  106.74   28.81   0
   0   8  -6  904.69   37.44   0
   1   0 -12   43.65   34.67   0
   1   6  -6  462.14   30.29   0
   1   6  -3 1741.01   41.29   0
  -3  11  -1  117.26   35.47   0
   0   6   1  507.50   29.65   0
   1  -3 -10   40.26   33.77   0
   1  -1 -12  581.51   42.08   0
   1   2 -11   97.89   31.31   0
   1   5  -8  387.80   29.14   0
   1   5  -2 1294.07   37.21   0
   1   6  -5  304.48   26.68   0
   0   7  -8  333.90   36.28   0
   0   8  -5  109.40   26.12   0
   0   8  -2   60.17   20.03   0
   1  -3  -8 1358.37   62.75   0
   1   4  -9  465.14   29.97   0
  -2  10   0  686.34   35.66   0
   0   1 -14   10.09   39.53   0
   0   7   0 2205.03   46.49   0
   0   8  -4  342.59   27.57   0
   0   8  -3  493.60   28.25   0
   1  -3  -9 2650.49   78.64   0
   1  -2 -11    5.42   32.52   0
   1  -1  -4  131.67   28.74   0
   1   0  -3 2751.77   80.79   0
   1   5  -7  663.96   32.75   0
  -3  10   2  243.45   33.12   0
   0   6  -9  636.04   39.22   0
   1   1 -11  256.95   31.81   0
   1   2  -2   25.91   16.18   0
   1   5  -3 1459.26   38.32   0
  -2   9   2    2.00   25.14   0
  -2  10  -3  203.70   33.28   0
  -2  10  -1   65.72   28.05   0
  -1   9  -1  639.69   33.90   0
   0  -6 -11  507.07   67.88   0
   0   5   1 4480.33   78.10   0
   0   7  -7  275.25   33.20   0
   1  -1 -11  303.73   35.07   0
   1   0 -11 1250.41   46.25   0
   1   3  -2 1701.58   47.30   0
   1   4  -8  169.62   24.69   0
   1   5  -6   30.43   22.57   0
  -3   6   5  348.55   57.75   0
  -2   8   3  579.24   37.80   0
  -2  10  -2  473.27   34.23   0
  -1   8   1  265.48   26.84   0
   0   0 -14  233.78   38.94   0
   0   2 -13  340.38   41.04   0
   0   5 -10  131.45   30.59   0
   1   2 -10  775.13   38.17   0
   1   5  -5 1366.63   37.57   0
   1   5  -4  376.93   24.18   0
  -2   6   4  446.25   43.11   0
  -1   7   2  108.38   23.32   0
  -1   8  -7  413.23   37.62   0
   0   3 -12  524.09   42.47   0
   0   7  -6  193.66   29.33   0
   0   7  -1  500.02   26.55   0
   1  -2 -10 1271.02   50.59   0
  -3   8   4  139.13   32.34   0
  -3   9   3  119.12   30.93   0
  -3  10   1  496.92   35.90   0
   0  -1 -14  374.10   45.95   0
   0   3   1 1994.18   70.14   0
   0   4   1  190.05   23.74   0
   0   6  -8    9.34   27.33   0
   1  -2  -6   17.36   26.72   0
   1   1 -10  316.46   33.02   0
   1   4  -7  997.20   36.21   0
   1   4  -3  319.27   22.66   0
  -1   8  -6   47.64   29.84   0
   0  -2 -14  179.29   41.83   0
   0   1 -13  531.30   42.16   0
   0   6   0 1756.12   43.39   0
   0   7  -5 1073.69   37.34   0
   0   7  -2  469.54   26.21   0
   1   4  -6  922.17   33.03   0
  -3  10   0   19.51   28.69   0
  -2   9   1  988.22   38.22   0
   0   5  -9  393.95   31.02   0
   0   7  -4   12.92   21.72   0
   0   7  -3 1114.27   36.29   0
   1  -2  -9 1522.83   54.57   0
   1   0 -10   42.25   26.57   0
   1   1  -3  232.43   25.56   0
   1   4  -5  589.50   28.07   0
   1   4  -4 1889.64   43.80   0
  -3  10  -3  333.52   36.69   0
  -1   7  -8  162.63   37.89   0
   0   2 -12  159.23   36.66   0
   0   6  -7  846.46   38.26   0
   1   3  -3 1242.93   39.42   0
  -3  10  -2   36.27   30.19   0
  -3  10  -1  663.71   36.61   0
   0  -5  -5   33.62   33.19   0
   0   0 -13  133.95   37.03   0
   1  -2  -8  522.92   37.95   0
   1  -2  -7 1604.82   60.46   0
   1   2  -3 5098.16   81.56   0
   1   3  -7   89.74   20.55   0
  -4  10   1   71.58   33.85   0
  -2   9   0  482.44   31.71   0
   0   6  -6  374.87   31.32   0
   0   6  -1  498.79   25.97   0
   1  -1  -9  199.10   28.64   0
   1   0  -9 1451.96   45.01   0
   1   3  -4 1714.00   43.92   0
  -2   8   2  541.34   34.45   0
  -2   9  -3    2.53   27.73   0
  -2   9  -1  214.75   28.30   0
  -1   6  -9   44.74   34.20   0
  -1   7  -7  169.75   30.74   0
  -1   8  -3  215.66   24.16   0
   0  -4 -13    0.54   37.91   0
   0   5  -8  389.28   31.54   0
   0   5   0   32.17   17.48   0
   1   0  -4 2085.32   63.18   0
   1   3  -5  650.78   29.37   0
  -3   9   2  732.00   40.33   0
   0  -1 -13   88.32   36.35   0
   0   1 -12   33.37   33.74   0
   0   6  -5  843.66   33.79   0
   1   2  -7 1089.03   36.24   0
  -4   9   3  861.19   45.17   0
  -4  10  -2  267.62   37.68   0
  -4  10  -1   11.30   33.48   0
  -4  10   0  452.36   38.51   0
  -2   7   3  902.27   43.39   0
  -1  -1 -15  430.90   49.69   0
  -1   5 -10  542.97   41.36   0
   0  -5 -12   13.73   40.07   0
   0  -3 -13  370.35   43.37   0
   0  -2 -13  733.68   47.99   0
   0   4  -9    4.84   23.62   0
   0   6  -4 1043.65   34.81   0
   0   6  -2 2255.35   46.63   0
   1  -1  -8 2374.50   60.04   0
   1   1  -4 5213.72   85.98   0
   1   2  -6  462.65   27.52   0
   1   2  -4  105.88   19.40   0
  -1  -2   1 4211.03   77.35   0
  -1   2 -13  238.31   44.67   0
   0   2 -11  643.05   38.80   0
   0   5  -7  222.17   27.64   0
   0   6  -3  568.25   27.97   0
   1   2  -5 4454.24   69.38   0
  -1   4 -11  429.05   43.25   0
  -1   6  -8  658.78   39.75   0
   1   0  -5  169.84   25.07   0
  -3   9  -4   -5.68   32.21   0
  -3   9   1   37.65   28.45   0
  -1  -2 -15  226.72   48.25   0
   0   0 -12  721.53   41.17   0
   1   1  -6  834.66   33.97   0
   1   1  -5 1106.17   39.72   0
  -3   8   3  433.91   36.97   0
  -2   8  -5  229.36   32.23   0
  -2   8   1  499.52   31.14   0
  -1   0 -14  181.54   39.90   0
  -1   7  -5   14.86   23.72   0
   0   4  -8  501.66   32.26   0
   0   4   0 3636.62   71.55   0
   0   5  -6 1124.13   37.84   0
   0   5  -1 2891.44   56.36   0
  -4   8   4 1238.58   56.15   0
  -3   7   4  534.71   43.88   0
  -3   9  -3  551.96   37.78   0
  -3   9   0  638.14   35.67   0
  -1   5  -9  318.41   33.32   0
   0   1 -11  870.71   42.16   0
   0   3  -9  708.67   34.93   0
  -4   9   2   13.07   31.09   0
  -3   9  -2  189.36   30.62   0
  -3   9  -1  506.53   33.89   0
  -2   7  -7  370.93   37.86   0
  -1   1 -13    4.24   38.01   0
  -1   6  -7   46.18   28.95   0
   0  -1 -12  525.84   39.43   0
   0   5  -5  332.56   25.13   0
  -2   8   0  188.43   28.07   0
  -1   4 -10   32.49   27.25   0
  -1   7  -3  355.53   26.33   0
  -1   7  -2  875.45   32.10   0
   0  -2 -12    6.57   34.31   0
   0   4  -7  298.54   28.39   0
   0   5  -4 2729.52   51.16   0
   0   5  -2 1779.37   43.31   0
  -2   8  -1 1363.08   42.20   0
  -1   2 -12  358.76   38.92   0
   0  -3 -12  496.04   44.24   0
   0   5  -3  832.77   31.98   0
  -1   5  -8  213.80   30.64   0
   0   0 -11   20.22   28.57   0
  -4   9  -3  107.23   33.27   0
  -4   9   1  582.46   38.07   0
  -2   7  -6   23.53   26.54   0
  -2   7   2  814.08   37.38   0
   0   3  -8  220.39   25.79   0
   0   3   0 3922.75   84.32   0
   0   4  -6  261.63   24.05   0
  -4   9  -2  356.78   34.93   0
  -3   8   2  217.41   30.45   0
  -2   6  -8   10.12   32.36   0
  -1  -2 -14  401.18   45.52   0
  -1  -1   2  186.15   22.48   0
   0   2  -9 1650.96   44.38   0
   0   4  -1 1508.34   44.61   0
  -4   9  -1  298.63   31.57   0
  -4   9   0  165.61   31.04   0
  -1   4  -9 1052.29   40.69   0
  -1   6  -5 1012.49   37.17   0
   0  -1 -11  857.62   42.29   0
  -2  -1 -15   -7.78   43.91   0
  -2   7  -5  855.30   35.83   0
  -1   1 -12  418.76   39.67   0
  -1   3 -10  278.16   31.32   0
  -1   5  -7  610.80   35.32   0
  -1   6   0  540.95   28.29   0
   0   3  -7 2232.18   49.50   0
  -2   5  -9  497.63   40.92   0
  -1   6  -4  441.85   29.62   0
   0   4  -4  104.16   19.23   0
   0   4  -2  241.92   22.41   0
  -7  -4  -8  837.80   38.02   0
  -6  -3  -8  442.69   32.56   0
  -5  -6  -4 2302.92   81.87   0
  -5   0  -8 1250.99   39.61   0
  -5   1  -8   11.20   25.10   0
  -2  -4   1 3795.52   86.39   0
  -2  10  -2  424.37   45.66   0
  -1   2  -4  142.34   20.72   0
  -1   7  -3  346.64   30.61   0
  -1  10  -1  556.68   47.20   0
  -1  11   0  334.25   47.66   0
   1   9   2 1097.60   61.62   0
  -4  -5  -4 1567.99   64.96   0
  -4   3  -7 1264.41   41.08   0
  -2   7  -4   20.99   27.56   0
  -2  11  -1  445.03   52.08   0
  -1   3  -4 1353.27   40.38   0
  -9  -4  -8  334.41   35.65   0
  -8  -4  -8   17.56   26.90   0
  -6   2  -8  409.08   35.22   0
  -4  -1  -7  288.60   24.13   0
  -3  -1  -6  245.16   22.35   0
  -2   0  -5 1826.05   46.06   0
   0   3  -2 5719.19   93.70   0
   1  10   3  514.22   58.48   0
  -6  -7  -3   59.93   48.85   0
  -5   4  -7  394.57   33.47   0
  -4   2  -7  341.15   30.31   0
  -3   8  -4  214.77   35.68   0
  -2   4  -5 1275.51   38.94   0
   0   4  -2  228.70   26.65   0
   0   9   0  249.08   37.28   0
  -7  -6  -6  570.45   40.18   0
  -7  -5  -7  768.60   39.59   0
  -6  -1  -8  327.92   27.42   0
  -5   6  -6  395.25   40.00   0
  -4   0  -7 1847.69   43.39   0
  -4   1  -7  346.36   28.49   0
  -3   3  -6  837.25   35.15   0
  -9  -3  -8  274.83   33.65   0
  -6  -4  -7 1072.95   40.22   0
  -6   0  -8  256.27   25.49   0
  -4   5  -6 1469.94   42.86   0
  -3   0  -6 1949.50   45.00   0
  -2   1  -5 2174.40   47.62   0
  -2   3  -5 1782.40   44.09   0
  -1   0  -3 3062.57   70.89   0
  -1   8  -2  899.99   42.51   0
  -8  -3  -8  287.72   30.71   0
  -7  -2  -8   12.67   25.66   0
  -7   1  -8   65.62   27.15   0
  -6  -6  -5 1765.61   61.12   0
  -6   4  -7  266.69   34.53   0
  -5   3  -7    3.32   28.50   0
  -3   1  -6  438.41   26.99   0
  -3   2  -6  287.70   25.28   0
  -3   9  -3  504.88   41.58   0
  -2   2  -5   89.59   18.38   0
   0   1  -1 3834.85  115.19   0
   0   7  -1  512.54   35.34   0
   0  10   1   11.44   33.79   0
  -9  -5  -7  505.77   41.62   0
  -8  -5  -7   39.49   29.92   0
  -8  -2  -8  447.35   33.75   0
  -4  -4  -5  327.42   30.76   0
   2   6   5 2982.61   86.21   0
  -8  -6  -6   93.41   33.84   0
  -8  -1  -8  126.98   29.38   0
  -6  -5  -6  823.38   39.36   0
  -5  -4  -6 1102.75   41.91   0
  -5  -2  -7 1972.83   44.08   0
  -4   8  -4  113.28   36.70   0
  -3  10  -2   26.09   34.72   0
  -6   3  -7  488.28   36.24   0
  -5  -5  -5 1664.53   55.70   0
  -5   2  -7  471.56   33.11   0
  -5   5  -6   -0.86   24.60   0
  -4   4  -6  293.63   28.92   0
  -3   5  -5 1147.82   39.27   0
  -3  11  -1   84.74   46.37   0
  -2   9  -2  831.93   44.20   0
  -1   9  -1  587.51   40.46   0
   1   6   1 1242.86   63.64   0
  -7  -4  -7  239.72   28.45   0
  -6  -3  -7 1294.12   42.11   0
  -5  -1  -7  956.91   34.68   0
  -5   1  -7 1063.40   37.70   0
  -2  -1  -4 5660.98   86.57   0
  -1  -1  -2 3298.32   99.15   0
   1   2   2 3733.09  113.42   0
  -5   0  -7   79.33   23.67   0
  -4  -2  -6 1823.23   43.99   0
  -4   9  -3   80.71   35.47   0
  -2   5  -4  777.35   32.74   0
  -2  10  -1   46.19   39.15   0
  -1  10   0   10.94   36.34   0
   0  -1   2  224.28   23.82   0
  -8  -4  -7  504.88   34.11   0
  -6   2  -7  112.23   27.09   0
  -4   3  -6   68.01   24.94   0
  -2   7  -3  693.53   39.06   0
  -2  11   0  289.76   45.91   0
  -1   1  -3   59.87   18.12   0
  -1   7  -2  851.84   38.91   0
  -1  11   1  396.34   48.06   0
   0   6  -1  467.60   33.94   0
   0   8   0  267.28   34.01   0
  -5   4  -6  711.37   36.45   0
  -4  10  -2  229.75   39.96   0
  -3   4  -5  391.43   29.70   0
  -3   8  -3  136.16   33.39   0
  -1   4  -3   12.26   16.62   0
   1   8   2  557.22   51.26   0
   2   5   5  286.84   31.63   0
  -9  -3  -7   41.14   29.53   0
  -7  -3  -7  160.41   26.86   0
  -6   1  -7  123.53   24.61   0
  -5   6  -5  351.60   34.69   0
  -4  -1  -6  601.35   29.00   0
  -9  -2  -7  426.46   35.61   0
  -8  -3  -7  551.69   34.41   0
  -7  -5  -6   14.73   29.36   0
  -7   1  -7  396.60   28.20   0
  -6  -1  -7  734.65   30.56   0
  -6   0  -7  846.26   32.77   0
  -6   4  -6  103.01   31.50   0
  -4   0  -6   83.77   20.87   0
  -4   1  -6 1040.67   34.82   0
  -4   5  -5  182.52   26.58   0
  -2   4  -4   36.12   18.85   0
  -1   2  -3 2520.71   57.45   0
  -1   3  -3 1813.55   47.99   0
  -9  -5  -6   63.36   34.81   0
  -7  -6  -5   55.98   30.40   0
  -7  -2  -7  591.83   32.37   0
  -5   3  -6  722.94   36.69   0
  -3   3  -5  147.48   22.80   0
  -3   9  -2  153.27   35.83   0
  -2   0  -4  688.75   32.70   0
  -8  -5  -6  814.83   43.20   0
  -8  -2  -7   34.14   26.40   0
  -7   0  -7   16.21   23.10   0
  -6  -4  -6  922.25   38.50   0
  -2  -2  -3 5553.74  105.78   0
  -2   3  -4 1198.99   38.67   0
  -2   8  -2  216.11   32.94   0
  -1   8  -1   45.82   29.64   0
   0   9   1 1103.77   54.03   0
  -4   8  -3  480.91   39.47   0
  -3   0  -5  354.47   24.72   0
  -6   3  -6   67.97   28.70   0
  -5   2  -6   37.63   23.38   0
  -3   1  -5 2174.85   47.21   0
  -3  11   0  202.01   47.18   0
  -2   1  -4  524.82   29.23   0
  -2   2  -4 2525.42   52.86   0
   0   2  -1 2133.92   74.37   0
   1   1   3 2625.48   63.19   0
  -8  -6  -5  585.78   41.46   0
  -6   5  -5   52.98   31.05   0
  -5  -6  -3  191.44   42.73   0
  -3   5  -4  541.58   31.73   0
  -2   9  -1  219.22   33.84   0
   0  10   2 1271.68   58.47   0
   1   9   3  185.29   45.04   0
  -9  -4  -6  166.75   33.01   0
  -7  -4  -6  308.98   29.16   0
  -6  -6  -4   23.84   30.23   0
  -5   1  -6  786.64   34.20   0
  -5   8  -3   67.19   37.18   0
  -4   6  -4  907.32   38.37   0
  -4   9  -2  366.10   39.18   0
  -1   9   0  547.88   42.28   0
   0   7   0 2110.73   61.89   0
   0  11   3   32.79   43.77   0
  -8  -4  -6  461.67   35.29   0
  -6  -3  -6   39.96   22.35   0
  -6   2  -6  701.17   34.96   0
  -5  -1  -6  371.09   25.09   0
  -5   0  -6 1644.87   42.27   0
  -2  10   0  701.05   48.28   0
   0   3  -1  200.99   26.57   0
  -7   2  -6   43.34   24.94   0
  -5   4  -5   56.56   27.10   0
  -4  -4  -4 1176.66   49.32   0
  -4   3  -5  780.19   34.84   0
  -4  10  -1   10.96   36.66   0
  -2  11   1  174.30   47.12   0
  -9  -3  -6  391.49   33.37   0
  -8   1  -6  169.43   31.77   0
  -6   1  -6  532.10   30.06   0
  -5   6  -4   83.11   25.70   0
  -4  -2  -5 1031.65   36.86   0
  -3   8  -2  578.22   38.45   0
  -2   5  -3  551.82   29.63   0
  -2   7  -2  728.63   39.38   0
  -1  10   1  519.06   47.11   0
   1  10   4  411.82   59.99   0
  -9  -2  -6  132.30   32.30   0
  -9  -1  -6   46.64   29.83   0
  -8  -3  -6   20.26   26.90   0
  -7  -3  -6 1123.09   39.43   0
  -7   1  -6  239.33   25.72   0
  -7   4  -5  -20.46   31.18   0
  -6   6  -4  579.34   34.94   0
  -5  -5  -4 1333.60   53.77   0
  -3  -2  -4 2040.75   54.23   0
  -3   4  -4 1404.54   40.65   0
  -1   7  -1 1261.03   46.63   0
  -1  11   2   77.92   42.37   0
  -6  -1  -6  962.18   33.64   0
  -6   0  -6   99.42   21.82   0
  -4   2  -5    4.13   19.54   0
  -4   5  -4  904.60   35.95   0
   1   7   2   10.79   34.22   0
   2   5   4 2817.71   93.27   0
 -10  -4  -5   53.46   35.81   0
  -9  -5  -5  464.92   40.14   0
  -8  -2  -6  665.73   34.90   0
  -8  -1  -6  479.54   31.57   0
  -7  -5  -5  476.29   36.11   0
  -7  -2  -6  189.73   27.85   0
  -5   3  -5  444.31   31.04   0
  -4  -1  -5  253.14   24.20   0
  -1   0  -2  420.82   35.13   0
  -8  -5  -5  227.91   33.01   0
  -4   1  -5 1043.89   35.60   0
  -3   9  -1  490.56   39.65   0
  -2   4  -3 1240.23   40.39   0
  -1   4  -2 1458.62   45.68   0
 -10  -3  -5  290.06   38.12   0
  -7   3  -5  159.36   29.76   0
  -6   3  -5  587.27   34.58   0
  -4   8  -2   12.85   31.18   0
   0   8   1  803.71   46.85   0
  -6  -4  -5  305.54   28.33   0
  -5   5  -4  365.67   29.41   0
  -3  10   0   10.22   33.37   0
  -3  11   1  201.92   44.08   0
  -2  -1  -3   25.81   18.08   0
   0   6   0 1669.41   56.36   0
  -9  -4  -5  406.53   36.08   0
  -8  -6  -4   10.77   33.10   0
  -8   2  -5   -8.16   26.60   0
  -6   5  -4  272.01   28.45   0
  -5   8  -2  800.57   41.59   0
  -4   4  -4    9.54   24.05   0
  -3  -1  -4   68.53   18.98   0
  -4   6  -3   18.45   23.14   0
  -3   2  -4   63.41   17.18   0
  -2   3  -3  195.34   22.79   0
  -1   3  -2   45.49   18.76   0
  -1   8   0 1896.65   55.18   0
  -9   0  -5   29.27   30.70   0
  -8  -4  -5  114.47   29.35   0
  -7  -4  -5  613.95   35.02   0
  -6   2  -5   -0.29   23.81   0
  -5   1  -5  204.38   25.01   0
  -5   9  -1  211.31   36.71   0
  -4  10   0  420.66   39.62   0
  -3   1  -4 1639.53   43.69   0
  -1   1  -2 5454.88   98.64   0
  -9  -3  -5    1.69   26.88   0
  -8   1  -5  304.74   31.22   0
  -5   0  -5   62.99   21.90   0
  -4  11   1   65.77   38.45   0
  -1   2  -2 3023.08   68.80   0
   1   1   2 3732.42   93.67   0
  -9  -2  -5  225.05   30.58   0
  -7   4  -4  654.14   36.95   0
  -6  -3  -5  866.44   35.02   0
  -6   1  -5  876.33   34.73   0
  -6   6  -3  -11.47   24.56   0
  -5   4  -4  987.48   36.51   0
  -5   6  -3  727.15   33.21   0
  -4   3  -4  859.36   33.53   0
  -2   0  -3 1610.10   49.76   0
  -2   2  -3  692.92   33.21   0
  -2  10   1  104.61   37.17   0
   0   9   2   77.74   36.75   0
  -6  -5  -4  910.35   43.86   0
  -6   4  -4    1.84   26.74   0
  -3   8  -1   18.70   29.75   0
  -2  11   2  464.55   47.96   0
  -1   9   1  128.43   34.06   0
  -9  -5  -4  370.01   39.41   0
  -8  -2  -5  359.24   30.44   0
  -8  -1  -5   13.52   25.81   0
  -7  -3  -5  163.56   25.87   0
  -6   0  -5  908.78   32.86   0
  -7  -2  -5  457.96   30.62   0
  -7   0  -5  271.14   24.50   0
  -6  -1  -5  125.11   21.52   0
  -5  -4  -4  277.49   29.45   0
  -4   5  -3 1093.63   38.22   0
  -3   4  -3   87.78   21.92   0
  -2   5  -2  206.40   23.29   0
  -2   7  -1  555.62   33.56   0
 -10  -3  -4   57.69   32.75   0
  -7   3  -4  339.77   30.96   0
  -6  -6  -3  904.88   51.76   0
  -6   7  -2  281.00   32.88   0
  -5   3  -4  395.12   29.16   0
  -4   2  -4 3014.69   54.03   0
  -1  10   2  282.61   42.08   0
  -1  11   3 1043.85   55.84   0
  -8  -5  -4  338.56   35.46   0
  -7  -5  -4  144.54   31.02   0
  -7   5  -3  102.65   28.52   0
  -6   3  -4  697.50   35.33   0
  -4   8  -1  694.70   38.01   0
  -3   6  -2  208.69   26.02   0
  -8   2  -4  446.09   29.78   0
  -6   5  -3  367.34   30.01   0
  -5   5  -3  351.19   29.08   0
  -3  11   2   86.37   41.68   0
  -1   5  -1  703.60   37.99   0
  -1   7   0  177.24   30.58   0
   0   7   1   41.38   28.33   0
   1   8   3 1197.34   71.35   0
  -9  -4  -4   -0.09   29.38   0
  -5   8  -1    9.73   28.39   0
  -4   1  -4  332.99   25.40   0
  -9   0  -4  244.71   30.22   0
  -7   2  -4   56.17   23.01   0
  -5   2  -4  365.66   27.52   0
  -4  -1  -4 2519.33   52.44   0
  -4   0  -4 1666.24   43.07   0
  -4   9   0  159.10   31.78   0
  -3   3  -3 2415.00   51.87   0
  -2   8   0  159.18   31.68   0
  -1  -3   0   34.11   26.91   0
  -9  -3  -4  232.58   30.88   0
  -9  -1  -4   12.17   27.74   0
  -8  -6  -3  503.67   43.27   0
  -8   1  -4   35.23   24.75   0
  -7  -6  -3  259.61   36.73   0
  -6  -4  -4 1671.47   48.04   0
  -6   2  -4  892.61   34.51   0
  -5   9   0  585.12   37.90   0
  -5  10   1  355.52   38.54   0
  -4   4  -3 1507.51   42.35   0
  -4   6  -2  532.62   30.69   0
  -4  10   1   84.15   32.42   0
  -4  11   2  318.70   39.86   0
  -2   4  -2  303.14   25.78   0
  -9  -2  -4  402.37   31.61   0
  -8  -4  -4  557.28   35.53   0
  -7   4  -3   82.98   27.94   0
  -6   6  -2  594.92   31.54   0
  -5  -5  -3 1221.21   54.83   0
  -4  -4  -3  221.82   32.63   0
 -10  -4  -3   35.44   34.52   0
  -7  -4  -4  173.47   27.35   0
  -7   1  -4  708.61   31.37   0
  -5   1  -4 2337.25   46.58   0
  -5   4  -3   55.78   23.79   0
  -5   6  -2    7.63   21.65   0
  -3  -2  -3 1375.50   50.45   0
  -3   5  -2 1494.17   42.95   0
  -2   9   1  901.12   44.08   0
  -8   3  -3   13.63   26.99   0
  -6   1  -4   22.09   21.97   0
  -6   4  -3  788.73   35.16   0
  -3   2  -3 2498.47   52.32   0
 -10  -3  -3  225.95   35.32   0
  -8  -3  -4  174.37   26.56   0
  -8  -2  -4  157.14   26.72   0
  -8  -1  -4  982.22   37.20   0
  -5   0  -4 1707.72   41.02   0
  -2  10   2  349.69   40.49   0
  -1   4  -1 2297.22   59.16   0
  -1   8   1  226.09   32.89   0
 -10  -2  -3  543.04   36.72   0
  -6  -3  -4  291.18   26.27   0
  -6   7  -1  124.31   29.14   0
  -5  -1  -4    3.56   16.69   0
  -4   3  -3  167.61   22.62   0
  -7   3  -3  623.42   32.63   0
  -7   5  -2  317.00   30.13   0
  -6   0  -4  149.47   21.71   0
  -3   1  -3   72.41   20.34   0
  -2   3  -2 2213.55   53.39   0
   1   0   2  436.18   30.45   0
  -9  -8  -3  225.93   38.21   0
  -8  -8  -3  324.39   37.90   0
  -7  -7  -4  273.44   29.48   0
  -7   4  -4  634.18   38.15   0
  -6   4  -4   13.04   29.40   0
  -5   1  -5  187.35   24.43   0
  -3  -4  -3 3068.89   68.08   0
  -3  -1  -4   49.51   19.92   0
  -2  -1  -3   25.50   17.32   0
  -2   8   0  153.27   52.00   0
  -9  -7  -4   28.30   29.93   0
  -8  -7  -4  411.98   34.11   0
  -5  -3  -5   -2.63   18.17   0
  -5   7  -2  357.98   46.25   0
  -4  -4  -4 1137.51   37.76   0
  -4   5  -3 1069.54   47.71   0
  -3   0  -4  984.10   38.09   0
  -3   4  -3  107.91   28.29   0
  -3   6  -2  199.01   38.47   0
  -8   1  -5  340.81   31.20   0
  -7  -5  -5  502.44   27.65   0
  -6   7  -2  215.59   42.38   0
  -5  -8   0  620.55   51.05   0
  -5   0  -5   64.30   19.89   0
  -2   0  -3 1587.33   51.37   0
  -2   1  -3 2403.34   61.26   0
  -1  -2  -1   40.38   26.21   0
  -7   1  -5  267.05   25.66   0
  -6  -6  -4   16.73   21.88   0
  -6  -4  -5  305.69   23.59   0
  -6   1  -5  862.13   33.70   0
  -5  -2  -5 1471.23   39.31   0
  -5  -1  -5  709.34   30.21   0
  -9  -4  -5  349.41   27.01   0
  -9  -1  -5  213.76   30.03   0
  -8   3  -4  352.73   34.43   0
  -6  -7  -3   76.74   24.52   0
 -10  -7  -3   -6.38   29.20   0
  -9  -3  -5    4.97   25.53   0
  -9  -2  -5  230.39   29.13   0
  -8  -4  -5   95.55   21.17   0
  -7  -8  -2  553.30   39.10   0
  -7  -4  -5  566.42   27.48   0
  -7   5  -3   98.47   30.97   0
  -5  -7  -2   75.41   26.11   0
  -5   5  -3  315.53   34.07   0
  -4   2  -4 2917.76   57.16   0
  -2  -3  -2 3505.95   86.41   0
   1   1   2 3812.11   88.14   0
   1   9   4  864.04   72.82   0
  -9  -8  -2  321.82   36.62   0
  -9  -6  -4  378.98   33.46   0
  -8  -1  -5   28.91   22.79   0
  -7   0  -5  267.57   25.52   0
  -7   3  -4  350.18   30.85   0
  -6  -3  -5  906.33   31.38   0
  -6   5  -3  355.07   34.28   0
  -4  -6  -2 1101.04   46.46   0
  -8  -8  -2  117.92   32.58   0
  -8  -6  -4   29.41   24.99   0
  -8  -3  -5  715.26   31.23   0
  -8  -2  -5  355.21   29.65   0
  -7  -6  -4  821.10   34.47   0
  -7  -3  -5  123.85   21.94   0
  -7  -1  -5 1261.45   37.06   0
  -6  -8  -1  813.84   44.79   0
  -6  -1  -5  148.61   22.71   0
  -5  -6  -3  214.07   25.68   0
  -4  -3  -4   31.55   17.91   0
  -1   8   1  237.94   60.98   0
  -9  -7  -3  358.69   31.57   0
  -7  -7  -3  629.54   34.96   0
  -7  -2  -5  466.60   28.56   0
  -4   6  -2  474.18   41.63   0
  -3   7  -1  915.46   53.54   0
  -2   4  -2  291.22   35.96   0
  -8  -7  -3   37.24   27.70   0
  -8   4  -3  270.97   33.41   0
  -7   6  -2   45.98   31.36   0
  -4   1  -4  334.73   25.35   0
 -10  -7  -2  294.19   35.30   0
  -5  -4  -4  285.01   22.63   0
  -5   2  -4  362.93   26.06   0
  -4  -2  -4 1595.34   42.15   0
  -2   6  -1  268.33   39.79   0
  -9   0  -4  238.26   28.03   0
  -6   2  -4  895.28   34.20   0
  -6   6  -2  521.89   37.71   0
  -5   6  -2   15.97   32.29   0
  -4  -1  -4 2460.91   50.21   0
  -4   0  -4 1667.47   42.90   0
  -9  -8  -1   18.29   34.25   0
  -9  -4  -4   -3.50   22.81   0
  -9  -1  -4   14.05   27.33   0
  -8   1  -4   14.13   21.21   0
  -7  -8  -1   77.62   32.48   0
  -7   4  -3   68.38   28.45   0
  -7   7  -1  365.98   41.73   0
  -9  -6  -3   38.60   27.28   0
  -9  -3  -4  254.29   24.20   0
  -9  -2  -4  407.51   29.42   0
  -8  -8  -1  479.51   38.64   0
  -6  -6  -3  907.46   35.56   0
  -6   4  -3  833.69   37.46   0
  -5   1  -4 2317.58   47.09   0
  -5   4  -3   61.68   27.75   0
  -3  -6   0  763.36   59.34   0
  -9  -7  -2   -9.36   27.13   0
  -8  -4  -4  527.43   26.52   0
  -8   0  -4  410.14   27.57   0
  -7   1  -4  697.81   30.13   0
  -6  -4  -4 1591.52   38.26   0
  -5  -3  -4 2108.07   44.61   0
  -3   2  -3 2507.13   56.06   0
   1   6   2 2942.99  133.54   0
  -8  -6  -3  537.68   32.47   0
  -7  -6  -3  270.01   29.14   0
  -7  -4  -4  162.23   21.24   0
  -6  -8   0   12.33   32.56   0
  -6   1  -4   48.48   20.59   0
  -6   7  -1  101.84   36.80   0
  -4  -4  -3  219.79   23.49   0
  -4   7  -1  105.42   37.79   0
  -3  -2  -3 1361.79   43.86   0
 -10  -7  -1  102.76   32.92   0
 -10  -6  -2  100.55   30.02   0
  -8  -7  -2  746.20   38.48   0
  -8  -3  -4  180.54   23.62   0
  -8  -2  -4  161.75   24.63   0
  -8  -1  -4  910.22   35.77   0
  -7  -7  -2   13.37   27.72   0
  -5  -7  -1 1219.91   50.90   0
  -5  -2  -4 2303.71   45.80   0
  -5   0  -4 1699.41   40.44   0
  -5   7  -1  433.13   41.51   0
  -1  -3   0   21.65   50.60   0
  -9  -5  -3  121.98   26.73   0
  -7   5  -2  329.41   33.70   0
  -6  -3  -4  280.89   21.65   0
  -6   0  -4  137.88   22.50   0
  -5  -1  -4    3.01   17.11   0
  -3   1  -3   67.39   21.46   0
  -2  -2  -2  914.45   44.38   0
  -8   2  -3  274.40   28.60   0
  -7  -2  -4  586.78   28.28   0
  -7  -1  -4   27.14   21.59   0
  -6  -2  -4  513.42   24.85   0
  -6  -1  -4 1119.07   33.63   0
  -6   8   0  215.02   41.84   0
  -4   5  -2  371.12   33.75   0
  -3  -4  -2  433.09   33.47   0
   1   0   2  464.98   32.78   0
  -8   4  -2  158.87   30.06   0
  -7  -8   0  807.05   44.65   0
  -6   5  -2   71.01   27.86   0
  -5  -6  -2 1529.34   46.18   0
  -3   0  -3 1073.31   39.52   0
  -1   6   0  500.85   51.57   0
  -9  -7  -1  358.57   31.56   0
  -9  -6  -2  315.76   32.61   0
  -9   0  -3  424.60   29.44   0
  -5   5  -2  539.21   34.44   0
  -5   8   0  470.25   45.28   0
  -4   8   0  106.43   39.35   0
  -3   9   1   54.99   42.71   0
 -10  -6  -1   77.69   31.00   0
  -9  -3  -3  168.85   22.94   0
  -7   6  -1  362.74   33.46   0
  -4  -6  -1  676.60   42.40   0
  -4   2  -3 1385.14   40.51   0
  -3  -5  -1   26.57   26.17   0
  -3   4  -2 1804.97   52.99   0
  -9  -2  -3   13.04   21.90   0
  -8   1  -3  484.76   26.81   0
  -7   2  -3  399.34   25.91   0
  -6  -7  -1  127.49   30.63   0
  -4  -3  -3 2334.38   50.73   0
  -3   6  -1 1594.18   54.43   0
  -2   7   0 1700.42   67.91   0
  -8  -7  -1  112.15   30.50   0
  -8  -6  -2  514.39   32.97   0
  -8  -4  -3   -3.30   20.27   0
  -7   4  -2  364.85   30.46   0
  -6  -6  -2  313.62   29.09   0
  -2   2  -2 1336.98   50.30   0
  -9  -5  -2  522.28   32.45   0
  -8   0  -3   79.79   24.35   0
  -7  -7  -1  946.90   42.82   0
  -7  -6  -2  388.57   30.64   0
  -7   7   0   44.02   31.51   0
  -6   2  -3  357.49   25.67   0
  -5   2  -3  745.30   30.27   0
  -2  -1  -2 5025.49   94.23   0
  -2   5  -1 1659.00   58.47   0
  -1   3  -1 8698.89  150.61   0
  -8  -3  -3  260.80   23.84   0
  -8  -1  -3  163.22   25.38   0
  -7  -4  -3 1701.91   39.58   0
  -7   1  -3   27.38   22.05   0
  -6  -4  -3   17.24   18.13   0
  -6   6  -1  170.95   30.13   0
  -4  -2  -3 3100.46   56.43   0
  -4   1  -3 2751.28   53.15   0
  -9  -7   0  131.93   33.47   0
  -8  -2  -3  445.15   26.98   0
  -7   8   1  168.80   39.58   0
  -4  -7   1  599.31   54.44   0
  -4   4  -2  149.79   25.80   0
  -4   6  -1  107.01   29.71   0
  -2   1  -2   36.98   20.42   0
 -10  -6   0  318.82   34.89   0
  -9  -6  -1  224.09   30.19   0
  -7   0  -3  814.86   31.55   0
  -6   1  -3 1528.69   39.50   0
  -5  -7   0  334.58   37.43   0
  -5  -3  -3  483.75   24.84   0
  -5   1  -3   30.82   17.91   0
  -5   4  -2  930.93   38.97   0
  -4  -1  -3 1147.06   35.91   0
  -4   0  -3  674.12   30.15   0
  -2   0  -2  614.61   36.46   0
  -9   0  -2    4.69   25.50   0
  -8  -5  -2   12.31   24.89   0
  -8   2  -2  207.40   22.67   0
  -7  -3  -3  543.97   27.62   0
  -7   5  -1   12.00   27.10   0
   0   6   1  468.93   77.88   0
   2   5   3 2144.44   65.03   0
  -9  -3  -2   88.27   21.42   0
  -8   4  -1  115.68   28.03   0
  -7  -2  -3  110.21   22.27   0
  -7  -1  -3 1101.03   34.76   0
  -6  -3  -3 1366.05   35.00   0
  -6   0  -3 1015.94   32.78   0
  -6   7   0  536.70   35.14   0
  -3  -3  -2 4517.08   80.57   0
  -9  -2  -2  484.14   28.52   0
  -9  -1  -2  254.34   27.01   0
  -8  -7   0  228.70   32.95   0
  -6  -2  -3 1896.74   39.92   0
  -5  -2  -3   19.20   16.76   0
  -5  -1  -3 2002.36   42.50   0
  -5   0  -3 1278.47   35.74   0
  -3   7   0    2.42   32.32   0
  -9  -5  -1   -0.06   27.42   0
  -8  -6  -1  132.15   27.21   0
  -8   1  -2  100.23   23.23   0
  -6  -1  -3   47.93   18.19   0
  -6   8   1  218.34   37.04   0
  -5  -6  -1  820.07   39.25   0
  -5   7   0   47.00   31.00   0
  -4  -4  -2 2932.95   60.70   0
  -2   8   1  489.48   48.48   0
 -10  -5   0   49.53   31.03   0
  -9  -7   1   44.26   34.27   0
  -9   2  -1   60.00   24.72   0
  -7  -7   0  364.63   37.61   0
  -7   6   0  338.33   32.64   0
  -6  -7   0  998.23   45.15   0
  -4   7   0  784.71   43.82   0
  -1   2  -1   38.37   25.39   0
   0  -4   3 2462.51   71.15   0
   1  -1   2 5748.85  100.59   0
  -9  -6   0   19.49   26.65   0
  -8   5   0   16.70   28.02   0
  -7  -6  -1  819.45   38.04   0
  -3   5  -1  193.44   30.23   0
   2   8   4 1235.81   64.97   0
  -8  -3  -2  621.89   28.26   0
  -8   0  -2 1142.62   36.12   0
  -6  -6  -1  510.38   32.71   0
  -3   2  -2 1494.84   45.79   0
  -2  -3  -1 1683.37   69.31   0
  -9   1  -1  114.76   25.54   0
  -8  -2  -2   24.41   21.04   0
  -8  -1  -2  400.70   28.84   0
  -7   7   1  515.58   35.77   0
  -5   5  -1   10.76   25.99   0
  -5   8   1  357.95   39.92   0
  -4   5  -1 1529.31   47.14   0
  -1   0  -1 4041.08  116.75   0
  -8  -5  -1  673.43   33.99   0
  -6   2  -2  235.17   23.17   0
  -5  -4  -2  132.34   20.28   0
  -3  -2  -2 3929.03   72.82   0
  -1   1  -1  160.99   30.41   0
   1   2   1   51.80   28.42   0
   2   6   3 3648.68   93.02   0
  -9  -3  -1  632.92   32.00   0
  -9   0  -1  582.36   32.03   0
  -8  -7   1  249.36   34.52   0
  -7   8   2   76.54   35.25   0
  -6  -4  -2 1314.50   36.24   0
  -6   6   0  206.86   30.20   0
  -5   9   2  437.60   44.16   0
  -4  -5  -1 2869.03   67.32   0
  -4   8   1  456.76   41.36   0
  -3   8   1  540.45   43.68   0
  -9  -5   0  382.53   32.23   0
  -9  -2  -1  113.14   21.72   0
  -9  -1  -1  230.44   25.22   0
  -8  -6   0  492.19   34.98   0
  -8   2  -1  475.35   26.62   0
  -7  -3  -2  613.91   28.11   0
  -7   0  -2   76.36   21.11   0
  -5   2  -2 1003.75   34.56   0
  -4  -6   0 1054.49   51.05   0
  -4  -3  -2  925.82   34.99   0
  -4   2  -2  791.34   32.08   0
  -2   6   0 1438.60   59.30   0
  -2   9   2   -3.58   42.98   0
  -1   7   1  639.60   60.81   0
  -7  -2  -2 1385.02   36.43   0
  -7  -1  -2  591.50   28.71   0
  -7   5   0  522.05   32.78   0
  -3  -1  -2  797.32   35.53   0
  -1   5   0 2653.40   90.40   0
  -7  -7   1  293.56   35.71   0
  -7  -5  -1   54.53   25.73   0
  -7   3  -1  621.46   30.35   0
  -6   1  -2   88.13   21.78   0
  -5  -7   1  459.36   40.43   0
  -3   0  -2  956.89   37.31   0
  -8   1  -1  534.25   29.37   0
  -6   7   1    5.99   28.11   0
  -5  -3  -2  237.77   20.31   0
  -5   6   0  302.93   30.07   0
  -4   9   2   34.47   37.02   0
  -9  -4   0  328.72   29.19   0
  -7  -6   0  115.27   28.52   0
  -6  -7   1  632.42   40.50   0
  -6  -5  -1 1128.00   38.29   0
  -6  -2  -2   29.06   17.67   0
  -6   0  -2  757.71   28.87   0
  -5  -5  -1   12.74   22.39   0
  -5   1  -2 1358.22   37.60   0
  -4   1  -2  242.96   22.11   0
  -3   9   2  746.52   51.10   0
   1   1   1 5126.89  124.90   0
  -9   1   0  126.28   27.26   0
  -8  -7   2   34.75   31.53   0
  -8  -3  -1   28.76   19.35   0
  -8   0  -1   -2.73   23.75   0
  -8   5   1  296.30   31.43   0
  -7   6   1  134.15   28.88   0
  -6  -1  -2  862.52   30.33   0
  -4  -2  -2   46.54   17.38   0
  -4   6   0  730.99   38.65   0
  -3   6   0  872.69   43.79   0
  -8  -5   0  101.64   25.68   0
  -8  -2  -1  520.31   27.82   0
  -8  -1  -1  521.75   28.09   0
  -8   3   0  427.79   27.73   0
  -7   2  -1   43.83   20.32   0
  -6   3  -1   97.90   22.35   0
  -6   8   2  179.09   32.94   0
  -5  -6   0  215.08   30.30   0
  -5  -2  -2 1748.31   40.66   0
  -5   0  -2  237.34   21.94   0
  -4  -1  -2 2115.99   47.18   0
  -4   0  -2 4298.02   64.85   0
  -2   3  -1  138.43   27.46   0
  -9  -6   2   46.90   29.64   0
  -9  -5   1  190.54   30.65   0
  -9   0   0   56.52   25.36   0
  -8  -6   1    3.10   28.85   0
  -6  -6   0 1236.81   43.46   0
  -6   5   0  102.49   26.17   0
  -6   9   3  178.74   39.57   0
  -5  -1  -2  697.13   28.21   0
  -9  -2   0  358.13   24.57   0
  -9  -1   0  379.38   26.67   0
  -7   7   2   76.87   27.99   0
  -5   7   1  558.02   36.55   0
  -8   2   0    5.76   21.68   0
  -7   1  -1  589.62   28.28   0
  -9   2   1   71.37   25.10   0
  -7  -7   2  516.89   37.47   0
  -7  -3  -1 1513.08   37.75   0
  -7   8   3  273.80   35.66   0
  -5   3  -1 1388.64   37.18   0
  -9  -4   1   66.24   26.79   0
  -7  -5   0  862.70   36.57   0
  -7   0  -1  828.02   31.95   0
  -6   2  -1  931.24   32.52   0
  -5   5   0 1757.27   46.53   0
  -2  -2  -1 4954.00  104.90   0
   2   3   2 3597.35   82.84   0
  -8   1   0  331.07   26.26   0
  -7  -2  -1   88.58   21.11   0
  -7  -1  -1  224.42   23.49   0
   2   2   2  950.95   42.66   0
  -7  -5 -12  486.31   40.91   0
  -6  -6 -11   87.66   32.26   0
  -5  -7  -9  160.19   32.72   0
  -5  -3 -11  685.91   34.84   0
  -5  -2 -11  184.76   26.29   0
  -5   2 -10  426.02   40.64   0
  -4  -2 -10  664.27   34.08   0
  -4  -1 -10   36.71   26.51   0
  -4   6  -7  380.52   42.71   0
  -2   2  -7  276.20   25.23   0
   0   3  -2 5714.20   99.10   0
   0   8   2 1104.36   73.61   0
  -3  -5  -7 3661.45   72.71   0
  -3   6  -6  339.20   37.75   0
  -2   7  -4   -1.07   30.18   0
  -2   9  -2  828.56   53.33   0
  -1   0  -5   81.04   18.28   0
  -1   2  -5 1002.84   36.28   0
  -1   9   0  558.23   46.26   0
  -7  -7 -11  408.85   36.61   0
  -4   2  -9  756.21   38.09   0
  -4   8  -5  159.45   43.77   0
  -4   9  -4  209.22   53.33   0
  -2  -1  -7 2327.86   49.98   0
  -2   0  -7 2021.18   46.31   0
  -2   1  -7   72.47   20.91   0
  -2   4  -6 1167.47   39.74   0
  -2   8  -3  454.23   42.36   0
  -1   1  -5 2274.22   52.49   0
  -1   6  -3 1664.01   51.94   0
  -6  -7 -10  166.47   34.96   0
  -6  -5 -11  709.90   40.20   0
  -5   1 -10   70.45   34.08   0
  -4  -6  -8 1049.14   43.91   0
  -3   2  -8  385.73   31.05   0
  -3   7  -5   12.95   35.87   0
  -3   9  -3  528.72   52.33   0
  -2  -3  -6  237.83   24.86   0
  -6  -8  -9  951.35   48.01   0
  -6  -1 -11  604.19   41.26   0
  -5  -5 -10  376.56   34.27   0
  -3   4  -7  650.79   37.03   0
  -3   8  -4  218.67   38.90   0
  -1   7  -2  870.48   43.48   0
  -1   8  -1   45.80   32.36   0
  -7  -8 -10  534.92   44.14   0
  -6  -4 -11  339.95   34.17   0
  -6  -2 -11  312.47   33.31   0
  -5   3  -9  143.23   34.00   0
  -3   1  -8  242.30   27.77   0
  -1   4  -4 2477.93   54.70   0
  -5   0 -10  156.90   31.62   0
  -4   1  -9   36.49   27.12   0
  -3  -6  -5  477.70   44.72   0
  -2   3  -6  361.97   27.34   0
   0   6   0 1704.13   65.15   0
   0   7   1   50.48   33.08   0
  -8  -7 -11  213.69   39.73   0
  -3  -2  -8   52.81   20.43   0
  -3   0  -8  839.59   34.76   0
  -5  -6  -9  725.83   40.83   0
  -5  -3 -10   96.59   25.70   0
  -5  -1 -10  583.38   35.67   0
  -4  -3  -9  351.65   29.11   0
  -4   0  -9  373.92   31.13   0
  -4   3  -8   96.82   27.20   0
  -3  -1  -8 1307.13   38.86   0
  -1  -1  -4 2680.64   65.71   0
  -7  -5 -11  131.82   33.55   0
  -6  -6 -10 1015.43   43.06   0
  -5  -2 -10  346.02   29.54   0
  -5   2  -9  120.47   31.09   0
  -4  -2  -9  316.44   28.65   0
  -4  -1  -9  830.28   37.23   0
  -4   6  -6  176.39   37.37   0
  -3   3  -7    9.83   24.30   0
  -2  -2  -6 3179.11   62.80   0
  -2   6  -4 1048.25   44.52   0
  -1   3  -4 1334.84   41.91   0
   0   1  -1 3813.76  120.56   0
  -7  -4 -11  127.90   35.90   0
  -2   2  -6 3424.01   59.70   0
  -2   9  -1  256.60   43.60   0
  -8  -6 -11   17.48   32.01   0
  -7  -7 -10  531.79   41.18   0
  -6   0 -10  445.73   40.38   0
  -4   7  -5  458.82   41.75   0
  -4   8  -4  102.60   38.52   0
  -4   9  -3   93.10   49.36   0
  -3   6  -5  360.95   36.37   0
  -2   7  -3  659.24   42.08   0
  -2   8  -2  256.10   39.70   0
  -1  -2  -3 1298.86   60.25   0
  -6  -5 -10  208.36   31.90   0
  -4   4  -7  409.30   35.78   0
  -3  -7  -1 1021.52   69.89   0
  -3  -5  -6    7.19   23.28   0
  -3   2  -7 1428.56   43.24   0
  -3   9  -2  171.65   46.90   0
  -2   1  -6 2258.87   49.90   0
  -2   4  -5 1221.60   39.67   0
  -1   2  -4  155.64   22.02   0
  -1   9   1  167.58   40.52   0
  -6  -7  -9  782.50   43.77   0
  -6  -1 -10    0.84   27.76   0
  -6   2  -9  354.63   37.76   0
  -4  -6  -7  742.84   41.46   0
  -3   4  -6  481.61   32.99   0
  -3   8  -3  117.12   39.43   0
  -2   0  -6    7.57   16.93   0
  -1   6  -2   -4.26   25.90   0
   0   3  -1  195.67   30.06   0
  -7  -8  -9  257.43   40.13   0
  -6  -8  -8  342.80   40.05   0
  -5  -5  -9  352.85   31.85   0
  -5   3  -8  602.09   36.26   0
  -5   6  -6  354.55   42.99   0
   0   2  -1 2243.30   80.61   0
  -6  -2 -10  361.77   31.09   0
  -5   0  -9  559.74   36.68   0
  -4   1  -8 1080.78   40.78   0
  -3  -3  -7  903.83   34.82   0
  -3   1  -7 1174.55   38.33   0
  -1   7  -1 1247.77   50.52   0
  -1   8   0 1912.91   66.86   0
  -8  -7 -10   76.16   38.84   0
  -7  -6 -10   -3.58   31.03   0
  -5   7  -5   -2.52   38.60   0
  -2  -3  -5 3792.63   76.44   0
  -1   4  -3    5.35   19.76   0
  -6   1  -9   22.76   32.74   0
  -5  -8  -6   15.85   35.42   0
  -5  -1  -9   72.12   26.78   0
  -5   8  -4  318.41   46.11   0
  -4   3  -7 1149.55   41.40   0
  -2   3  -5 1846.04   46.51   0
   0   8   3   70.57   51.18   0
  -6   3  -8   -1.16   32.86   0
  -5  -3  -9  766.07   34.13   0
  -5  -2  -9  945.29   37.17   0
  -5   2  -8  386.21   34.07   0
  -5   4  -7  376.94   36.86   0
  -4   0  -8  272.96   28.98   0
  -3  -2  -7 1690.85   44.27   0
  -3  -1  -7  665.92   31.73   0
  -3   0  -7  105.10   21.69   0
  -2  10   1  117.15   46.02   0
  -9  -7 -10  255.20   41.20   0
  -7  -2 -10  149.14   33.21   0
  -6  -6  -9   60.97   28.29   0
  -5  -6  -8  530.42   34.50   0
  -4  -3  -8 1315.89   40.03   0
  -4  -1  -8  320.57   29.32   0
  -3   3  -6  825.02   36.37   0
  -8  -8  -9  207.19   39.02   0
  -8  -6 -10  407.37   36.17   0
  -4   7  -4   33.33   36.86   0
  -2   6  -3   12.20   26.62   0
  -7  -7  -9   48.34   34.28   0
  -5  -7  -7   16.54   30.22   0
  -4   9  -2  395.24   51.85   0
  -3   6  -4  113.68   32.97   0
  -2   2  -5  111.97   21.29   0
  -2   9   0  535.73   49.50   0
  -1   3  -3 1814.25   50.99   0
   0  -1   2  243.34   25.30   0
   0   6   1  511.45   48.32   0
  -8  -5 -10  272.37   34.01   0
  -8  -4 -10   33.61   33.33   0
  -6   4  -7  218.38   39.40   0
  -5   1  -8    9.74   29.46   0
  -4  -5  -7   26.46   24.83   0
  -4   2  -7  344.81   31.60   0
  -4   4  -6  296.54   29.68   0
  -3  -6  -4 2696.73   98.76   0
  -2  -2  -5  111.59   21.11   0
  -2   7  -2  711.10   42.73   0
  -6  -7  -8   67.69   32.42   0
  -6  -5  -9  501.82   33.94   0
  -6   2  -8  442.08   37.30   0
  -3   2  -6  287.86   26.37   0
  -3   7  -3  158.62   35.14   0
  -3   9  -1  520.48   48.86   0
  -2   4  -4   39.75   20.39   0
  -2   8  -1 1294.82   54.75   0
  -1  -1  -3 2613.34   74.16   0
   0   7   2 2139.63   92.69   0
  -7  -8  -8  337.92   40.03   0
  -7   0  -9  246.64   34.69   0
  -5  -5  -8  289.83   29.51   0
  -5   3  -7   27.07   25.62   0
  -5   6  -5  301.01   41.03   0
  -3   4  -5  387.29   30.07   0
  -3   8  -2  605.54   44.60   0
  -2   1  -5 2240.74   51.00   0
  -6  -8  -7  312.34   37.36   0
  -6  -2  -9  124.24   25.75   0
  -5   0  -8 1247.95   42.50   0
  -2  -1  -5  906.02   37.02   0
  -2   0  -5 1814.78   47.91   0
  -1   2  -3 2512.00   60.77   0
  -8  -7  -9  301.83   38.20   0
  -7  -6  -9  668.66   39.25   0
  -7  -1  -9   13.34   26.72   0
  -5   7  -4  422.31   42.15   0
  -5   9  -2   45.93   44.94   0
  -4   1  -7  338.84   29.32   0
  -3  -5  -5 1586.66   58.40   0
  -1   6  -1 2059.69   60.63   0
  -1   9   2 1392.43   67.74   0
   1   5   5 3487.78   85.30   0
  -5   8  -3   41.71   37.68   0
  -3   1  -6  436.71   28.41   0
  -9  -7  -9   22.98   34.69   0
  -7  -5  -9  538.07   36.33   0
  -6   3  -7  478.00   33.33   0
  -6   6  -5  122.44   39.76   0
  -5  -1  -8 1672.23   46.14   0
  -5   4  -6  668.37   37.42   0
  -4   3  -6   56.23   25.74   0
  -3  -3  -6 2926.28   59.44   0
  -1   0  -3 3047.69   73.11   0
  -1   1  -3   61.97   19.18   0
  -8  -6  -9   48.49   28.95   0
  -7  -4  -9   17.71   28.88   0
  -5  -3  -8  671.31   33.40   0
  -5  -2  -8    7.04   23.11   0
  -5   2  -7  447.50   33.30   0
  -4   0  -7 1883.04   46.61   0
  -3   0  -6 1925.60   46.05   0
  -2   3  -4 1183.99   40.14   0
  -1   7   0  194.85   33.87   0
  -1   8   1  262.32   41.39   0
  -8  -2  -9   96.59   33.83   0
  -7   1  -8   69.66   33.86   0
  -6  -6  -8  894.90   41.18   0
  -4  -3  -7 1129.58   38.84   0
  -3  -2  -6  421.00   27.24   0
  -3   3  -5  172.24   24.13   0
  -1   4  -2 1480.98   50.22   0
  -9  -6  -9  277.02   36.17   0
  -8  -5  -9  208.78   32.71   0
  -6   0  -8  297.59   32.41   0
  -5  -6  -7  626.20   37.56   0
  -4  -2  -7   12.50   18.97   0
  -4  -1  -7  328.11   25.94   0
  -4   9  -1  300.39   46.66   0
  -3  -1  -6  225.66   23.63   0
  -2  10   2  424.62   51.38   0
   1   6   5  923.32   58.06   0
  -7  -7  -8  552.55   40.35   0
  -6   4  -6  122.11   33.44   0
  -5  -8  -5  955.66   58.39   0
  -4   8  -2   11.71   35.47   0
  -3   6  -3 1000.66   45.20   0
  -3  10   1  525.08   52.03   0
  -2  -3  -4 1055.85   48.27   0
  -2   6  -2 1798.69   52.15   0
  -7   0  -8  488.19   34.97   0
  -6  -5  -8  690.67   37.62   0
  -6  -1  -8  292.86   30.23   0
  -6   2  -7  127.23   29.89   0
  -5   1  -7 1086.82   41.29   0
  -4   2  -6  455.79   31.97   0
  -4   4  -5  983.45   39.02   0
  -2  -6   0 1293.40   61.20   0
   1   7   6 1130.28   60.27   0
  -5   3  -6  766.78   35.95   0
  -2   2  -4 2404.19   54.66   0
  -2   9   1  949.44   53.85   0
  -7   2  -7  525.38   38.84   0
  -6  -2  -8 1061.21   38.13   0
  -5  -7  -6 1275.45   53.22   0
  -5   6  -4   76.42   32.66   0
  -3   2  -5 4062.77   65.73   0
  -3   8  -1    0.86   34.00   0
  -3   9   0  654.87   48.40   0
  -2   7  -1  511.68   36.94   0
   1   5   4  339.73   44.93   0
  -8  -7  -8   -0.28   31.54   0
  -7  -6  -8  148.01   29.13   0
  -7  -1  -8  364.86   30.71   0
  -6  -3  -8  432.84   31.18   0
  -5   0  -7   64.36   25.73   0
  -5   7  -3  120.25   36.08   0
  -5   9  -1  215.60   43.67   0
  -4  -5  -6 2000.26   55.84   0
  -3   4  -4 1400.88   42.30   0
  -2   4  -3 1232.59   41.92   0
  -2   8   0  197.11   36.26   0
   0   3   0 3631.49  112.79   0
  -8  -1  -8  150.93   33.04   0
  -6   1  -7  118.94   30.34   0
  -6   6  -4  542.50   41.56   0
  -5  -5  -7 1265.99   42.48   0
  -5   8  -2  766.92   45.14   0
  -4   1  -6 1023.01   36.39   0
  -1  -2  -2 3150.25  118.99   0
  -1   3  -2   42.15   20.38   0
  -9  -7  -8  361.23   39.98   0
  -7  -2  -8   13.04   24.50   0
  -6  -8  -6  523.70   41.12   0
  -6   3  -6   33.25   26.45   0
  -2   1  -4  495.33   30.27   0
   0  -2   2 2355.60   60.00   0
   1   8   7  801.11   55.30   0
  -8  -6  -8  351.88   33.95   0
  -7  -5  -8  232.28   29.80   0
  -7   3  -6  391.39   37.43   0
  -6   7  -3  350.58   37.84   0
  -6   8  -2   -4.84   37.51   0
  -5   2  -6   30.30   27.49   0
  -5   4  -5   28.88   25.22   0
  -4   3  -5  741.80   36.84   0
  -2  -2  -4 2105.74   58.80   0
  -9  -6  -8  141.47   33.77   0
  -8  -2  -8  443.47   36.17   0
  -7  -4  -8  869.20   37.89   0
  -4   6  -3   -0.70   30.62   0
  -3   1  -5 2084.52   49.18   0
  -8  -8  -7   57.96   35.97   0
  -8  -5  -8  568.98   36.42   0
  -6   0  -7  859.51   37.12   0
  -5  -3  -7  455.54   27.80   0
  -4   0  -6   69.40   21.71   0
  -2  -1  -4 5778.92   89.26   0
  -2   0  -4  718.16   33.47   0
  -9  -5  -8    7.49   31.18   0
  -9  -4  -8  324.59   37.88   0
  -8  -4  -8   11.92   29.59   0
  -6  -6  -7  803.39   39.71   0
  -4  -6  -5  727.54   44.31   0
  -4   7  -2  340.87   35.81   0
  -4   9   0  154.51   41.16   0
  -1   6   0  520.02   39.56   0
  -7  -7  -7   68.60   33.49   0
  -7   0  -7    9.93   28.12   0
  -7   4  -5    1.39   33.96   0
  -6   2  -6  738.17   36.72   0
  -4  -1  -6  600.20   30.34   0
  -4   8  -1  642.77   42.97   0
  -3  -3  -5   54.45   20.24   0
  -3   0  -5  331.24   24.96   0
  -3   3  -4  785.63   34.27   0
  -2   3  -3  195.76   24.31   0
  -1   9   3   23.68   39.89   0
  -6  -1  -7  746.78   34.99   0
  -4  -3  -6  554.41   29.50   0
  -4  -2  -6 1833.14   45.68   0
  -3  10   2  246.87   45.72   0
  -1   2  -2 3013.97   71.36   0
  -7   2  -6   47.96   28.52   0
  -6  -5  -7   16.91   26.11   0
  -5  -6  -6 1382.54   48.19   0
  -5   3  -5  418.90   30.91   0
  -5   6  -3  668.36   38.76   0
  -4   2  -5    8.19   20.73   0
  -4   4  -4   -0.84   23.64   0
  -3  -2  -5 1256.06   41.49   0
  -3  -1  -5 1990.44   49.08   0
  -3   6  -2  188.60   29.36   0
  -2  10   3  464.35   50.75   0
  -6  -2  -7   39.02   22.26   0
  -5   9   0  549.16   48.45   0
  -2   6  -1  258.83   31.62   0
   0   2   0 2143.77  105.94   0
   1   3   3  366.74   38.88   0
  -8  -7  -7  628.55   39.11   0
  -8  -1  -7  148.85   26.96   0
  -7  -1  -7  367.55   28.60   0
  -6  -3  -7 1393.69   40.87   0
  -6   6  -3   12.40   32.30   0
  -5   7  -2  346.91   37.54   0
  -5   8  -1   22.72   32.61   0
  -3   7  -1  936.89   45.74   0
  -3   9   1   49.18   38.98   0
   1   2   3 1287.61   53.54   0
  -9  -7  -7   32.71   33.30   0
  -7  -6  -7  364.68   31.50   0
  -6   1  -6  544.36   35.55   0
  -6   3  -5  594.89   32.99   0
  -6   9   0   35.27   39.90   0
  -5   0  -6 1656.03   43.85   0
  -3   8   0  625.57   43.78   0
  -1   4  -1 2258.22   64.15   0
  -7  -2  -7  600.34   30.54   0
  -6   7  -2  267.06   34.49   0
  -6   8  -1  467.95   40.53   0
  -3   2  -4   64.73   21.48   0
  -3   4  -3   84.23   23.88   0
  -1   1  -2 5498.03  101.80   0
  -8  -2  -7   46.14   27.18   0
  -8   1  -6  173.17   33.03   0
  -7   1  -6  251.16   31.00   0
  -4   1  -5 1074.15   37.45   0
  -2   2  -3  663.99   33.92   0
  -1  -1  -2 3343.30  100.04   0
  -5   4   5  764.89   28.16   0
  -5   4  11  348.83   32.29   0
  -4   2  10  145.89   32.40   0
  -4   4   2 1603.27   37.34   0
  -2   6  -1  254.25   25.95   0
  -4   2   4 2672.01   48.72   0
  -3   9   1   36.91   24.77   0
  -2   5  -1 1576.31   45.97   0
   0   8  -2   48.16   38.28   0
   2   4  -3 2437.60   87.31   0
  -5   4   6 1105.38   34.30   0
  -4   3  12  341.03   38.88   0
  -4   5   2  973.25   30.16   0
  -4   6   2  225.23   21.46   0
  -4  11   4  291.89   29.15   0
  -3  12   3   80.99   36.11   0
  -1   9  -1  582.49   41.61   0
  -5   4   7    5.59   19.29   0
  -5   6   5  394.76   25.12   0
  -5   6  13   65.22   33.04   0
  -5   7   5   62.81   20.10   0
  -5   8   5  739.92   28.78   0
  -4   3   3 2262.71   42.83   0
  -4   9   3  883.88   34.08   0
  -2   2   0 1527.55   46.97   0
  -2   9   0  484.47   36.21   0
  -2  11   1  215.91   35.26   0
  -5   4   8  510.12   27.00   0
  -5   5  11   13.33   29.10   0
  -5   9   6   91.19   21.82   0
  -4   2   5  181.54   19.87   0
  -3   1   3 2951.82   57.28   0
  -3   2  12  472.74   45.78   0
  -3   3   1  579.56   27.32   0
  -1   2  -1   42.70   20.78   0
  -5   5   6   96.93   21.38   0
  -4   2   8 1063.38   38.07   0
  -4   4  13   -6.73   36.01   0
  -3   8   1  520.16   29.79   0
  -2   1   1 1126.67   42.29   0
  -5   5   7  612.00   28.85   0
  -5   6   6  331.82   26.31   0
  -5   6  12  368.02   34.84   0
  -5   8   6  190.14   22.76   0
  -4   3  11  131.43   32.78   0
  -4   4   3    5.27   15.88   0
  -4  10   4   21.59   24.94   0
  -3  10   2  230.83   27.26   0
  -1  -1   6  852.83   65.70   0
  -5   5   8  375.56   25.16   0
  -5   7   6  638.28   29.05   0
  -5   9   7  322.33   27.34   0
  -4   3   4   -0.61   15.83   0
  -4   5  14  252.79   43.14   0
  -3   1   9   40.90   27.69   0
  -3   2   2 3292.00   57.60   0
  -2   0   3 3859.68   80.14   0
  -5   6   7  863.99   31.52   0
  -5   7  12    2.16   30.94   0
  -4   7   3  323.21   23.22   0
  -4  11   5  175.71   26.82   0
  -3   4   1 2097.45   44.85   0
  -3   7   1 1746.48   41.85   0
  -1  -1   5 1102.54   70.87   0
  -5   6   8   56.42   21.05   0
  -5   7   7   37.71   23.21   0
  -5   8   7  344.24   26.02   0
  -4   3  10  792.17   37.99   0
  -4   5   3  830.71   28.45   0
  -4   6   3  459.49   24.16   0
  -3   1   4   34.04   16.03   0
  -3  11   3  531.29   32.03   0
  -2   8   0  171.99   25.33   0
  -5   6   9  782.07   31.12   0
  -5   9   8   -2.63   23.52   0
  -3   3  13  236.02   41.89   0
  -3   5   1  877.59   31.01   0
  -3  12   4  266.62   29.41   0
  -2  10   1   99.90   29.31   0
  -1   8  -1   37.58   27.42   0
  -5   7  10  120.11   22.87   0
  -5   8  11  104.00   30.48   0
  -4   3   5 1704.25   39.68   0
  -4   4   4 2117.85   41.54   0
  -3   2  11  158.44   37.22   0
  -3   9   2  737.11   32.13   0
  -2   1  11  507.82   48.83   0
  -5   8   9   32.52   22.01   0
  -4   3   9  104.41   26.30   0
  -4   5  13  260.76   35.57   0
  -4   6  14    3.83   35.30   0
  -4   8   4 1274.70   35.01   0
  -1  10   0    9.84   28.75   0
  -4   3   6  843.53   30.32   0
  -4   4  11  177.03   29.59   0
  -2   0   4 1030.72   45.99   0
  -2   7   0 1643.95   45.02   0
  -1   0  10   28.36   46.94   0
  -1   1   0 3107.93   91.24   0
  -4   3   7  914.49   31.79   0
  -4   5   4 1502.68   36.07   0
  -4   7   4  384.82   24.15   0
  -3   2   3 1563.40   41.36   0
  -3   3   2 1517.12   38.66   0
  -3   8   2  241.79   25.18   0
  -3  10   3  168.97   26.71   0
  -2  11   2  440.07   33.83   0
   2   0  -1 2341.39   58.02   0
   2   3  -3 1136.22   56.60   0
  -4   4   5 1945.77   40.76   0
  -4   5  12   17.94   30.41   0
  -4   6   4  118.43   19.79   0
  -4   4  10  452.93   32.89   0
  -4   6  13  643.92   40.77   0
  -3   2  10  876.99   43.37   0
  -3   3  12  293.98   40.12   0
  -3  11   4   40.55   25.71   0
  -3  12   5  363.75   31.44   0
  -2   4   0 2843.80   58.01   0
  -2   6   0 1401.26   41.99   0
  -1   7  -1 1174.59   45.26   0
  -4   4   6   23.39   17.01   0
  -4   8   5   12.52   18.75   0
  -3   4   2  124.86   17.62   0
  -2   9   1  903.08   36.45   0
  -2  13   4   24.91   31.77   0
  -1   3  -1 8310.17  125.80   0
  -4   5   5   23.11   17.09   0
  -4   7   5 1134.36   33.71   0
  -2   1   2 5251.79   86.54   0
  -2   2   1 3650.06   69.57   0
  -1  11   1  355.78   37.44   0
  -4   4   7 1556.25   38.35   0
  -4   4   8   -6.51   19.04   0
  -4   6   5 1092.35   32.62   0
  -4   9   6  822.85   29.63   0
  -4  10   7  370.79   24.86   0
  -4  11   8   30.74   26.52   0
  -3   2   4  682.30   29.67   0
  -3   5   2 1199.18   33.69   0
  -3   9   3  122.95   22.63   0
  -2   1  10  175.49   38.59   0
  -4   5   6 1793.77   39.81   0
  -4   6  12  264.21   31.15   0
  -4   7  13   61.65   29.86   0
  -3   4  13  703.16   44.17   0
  -2   2  12   12.13   38.16   0
  -1   6  -1 2051.70   56.04   0
  -1   9   0  520.91   36.24   0
   0  -1   8 1623.11  124.19   0
  -4   8   6  589.11   28.12   0
  -3   3   3  146.45   17.00   0
  -3   5  14  216.75   40.57   0
  -3   6  15   28.88   40.49   0
  -3  10   4  593.26   30.64   0
  -2  10   2  361.25   30.60   0
  -1  12   2  291.60   37.29   0
   0   4  -2  234.85   38.64   0
   0   9  -1  415.72   39.82   0
  -4   5   7  247.93   23.57   0
  -4   5   9  606.19   29.44   0
  -4   6   6 1108.50   33.11   0
  -4   7   6   46.20   19.75   0
  -4   8  13  267.95   33.82   0
  -4   9   7   16.59   20.48   0
  -4  10   8  262.50   26.14   0
  -3   2   5 2175.64   47.69   0
  -3   2   8  141.82   25.48   0
  -3  11   5  369.83   28.48   0
  -3  12   6   14.62   24.58   0
  -2   8   1  458.97   28.54   0
  -1   5  -1  691.87   37.40   0
  -4   5   8  483.09   26.18   0
  -4  10   9  131.42   24.98   0
  -4   6   7  254.49   22.79   0
  -4   8   7  224.71   23.54   0
  -4   9   8  648.42   30.04   0
  -3   2   6  416.46   25.05   0
  -2  11   3   -1.47   24.12   0
  -2  12   4  228.21   29.28   0
  -2  13   5  411.47   33.89   0
  -4   6   9   91.88   20.89   0
  -4   8   8  156.10   24.94   0
  -4   9   9  119.10   24.75   0
  -4   9  11  353.52   29.37   0
  -3   4   3 2321.44   45.29   0
  -3   4  12   24.00   32.06   0
  -3   7   3 1246.20   33.22   0
   1  -2   4  149.56   32.43   0
   1   0  -1 7039.60  133.72   0
  -4   7   8  216.70   23.19   0
  -4   7   9  295.48   25.57   0
  -4   8   9  644.85   29.68   0
  -4   8  10   20.39   21.08   0
  -3   3   4 1751.47   41.27   0
  -3   3  10  134.51   28.92   0
  -3   5   3 1160.72   33.02   0
  -3   6   3   53.74   17.44   0
  -3   7  15  297.29   39.58   0
  -3  12   7  490.89   31.33   0
  -2   1   3  485.63   29.54   0
  -2   3   1 1905.55   48.37   0
  -2   3  13  328.77   42.54   0
  -2   7   1   12.29   17.63   0
  -3   5  13  113.90   31.19   0
  -2   9   2    4.35   21.33   0
  -1  10   1  515.81   35.98   0
   2   2  -3  134.70   26.62   0
  -3   3   5  463.50   24.58   0
  -3   3   9 1517.02   43.59   0
  -3   8   4  153.06   19.66   0
  -2   2  11  888.71   48.35   0
  -2   4   1   58.78   16.83   0
  -2   4  14  452.36   44.90   0
  -1   0   2 2851.45   93.59   0
  -3   4   4  992.10   31.10   0
  -3   4  11  971.06   40.68   0
  -3   7  14  132.17   34.07   0
  -2   2   2  447.76   26.43   0
  -2   5   1 2295.83   48.32   0
  -2  10   3  402.61   28.03   0
  -2  13   6   62.34   28.30   0
  -3   3   6 2053.80   44.94   0
  -3   5  12  682.28   37.14   0
  -3   6  13   91.99   31.01   0
  -3   7   4  536.05   24.29   0
  -3   9   5  848.76   29.25   0
  -2   1   8  121.34   27.16   0
  -2  11   4  934.15   36.48   0
  -2  12   5  210.24   28.45   0
  -1  11   2   87.20   30.09   0
  -1  14   5  167.40   35.10   0
   1  -2   3 2450.75   78.89   0
  -3   3   7  695.68   29.59   0
  -3   5   4 1260.86   34.07   0
  -3   6   4 2669.90   46.06   0
  -2   1   4 5213.29   84.54   0
  -1   1  11  315.45   47.92   0
  -1   2   0 2289.06   69.48   0
  -1  12   3   87.05   29.84   0
  -1  13   4  507.49   37.40   0
  -3   4  10  613.09   33.73   0
  -3   8  14   47.74   30.03   0
   1   1  -2  185.96   32.15   0
  -3   4   5  644.06   27.24   0
  -3   8   5  955.55   30.52   0
  -3  10   7  202.21   23.10   0
  -2   1   7 2440.17   62.60   0
  -2   3  12  706.62   45.07   0
  -2   7  16   46.09   40.46   0
  -2  13   7  391.79   32.54   0
  -1   7   0  182.06   24.21   0
   1  -1   0 3370.26   84.38   0
  -3   5  11   -3.45   25.68   0
  -3   6  12  428.76   32.40   0
  -3   9   6  224.62   21.25   0
  -3  11   9   72.73   25.52   0
  -2   1   5 1615.70   49.91   0
  -2   2  10  366.96   33.92   0
  -1   9   1  152.71   25.65   0
  -3   4   6 1446.17   37.27   0
  -3   5   5  981.80   30.61   0
  -3   6   5  373.82   22.95   0
  -3   7   5   21.32   17.58   0
  -2   4  13    7.51   34.60   0
  -2   6  15  283.88   43.59   0
  -2   9   3 1103.34   36.04   0
  -2  12   6  447.19   31.43   0
  -1   0   8 1031.55   59.38   0
   0  11   1  234.84   33.55   0
   3   5  -4  191.32   45.53   0
  -3   4   7    1.15   15.74   0
  -3   4   8 2091.64   44.03   0
  -3   8   6  496.85   26.33   0
  -3  10   8  685.68   29.48   0
  -2   3   2 2424.93   52.60   0
  -2   5  14  440.01   42.12   0
  -2  10   4   98.97   23.37   0
  -2  11   5  217.51   25.98   0
  -1  14   6  156.98   31.54   0
  -3  10   9  646.25   29.87   0
  -3  10  12    2.15   24.82   0
  -2   2   3 4494.50   74.03   0
   0  12   2   -1.60   32.66   0
  -3   5   6    2.49   16.28   0
  -3   5   9  392.30   26.45   0
  -3   6   6  629.41   26.86   0
  -3  10  10   14.43   23.89   0
  -2   6   2   94.13   17.43   0
  -1   1   1 3156.76   88.28   0
  -1  10   2  276.81   29.17   0
  -1  13   5   14.48   25.32   0
  -3   5   7 1237.72   34.09   0
  -3   5   8  703.73   28.27   0
  -3   6  10  386.19   26.66   0
  -3   8   7  427.57   26.30   0
  -3   9   8   43.94   20.97   0
  -2   2   9  171.05   28.30   0
  -2   3  11  385.13   36.65   0
  -2   4   2 3866.15   62.55   0
  -2   5   2  755.08   29.57   0
  -2   7  15  288.10   36.70   0
  -1  11   3 1045.80   39.60   0
  -1  12   4  297.00   30.32   0
  -3   6   7 1074.40   32.16   0
  -3   7   7    7.51   19.75   0
  -3   8  11  129.35   21.88   0
  -3   9  10  316.83   26.06   0
  -2  12   7   33.42   23.36   0
  -1   3   0 2533.90   66.14   0
  -3   6   8  155.14   22.12   0
  -3   7   8 1071.78   33.33   0
  -3   7   9  463.55   28.46   0
  -3   7  10  109.04   21.03   0
  -3   8   9   54.77   21.53   0
  -3   8  10  748.72   31.01   0
  -2   4  12 1115.47   46.20   0
  -2   6  14    3.09   30.27   0
  -1   0   3 2760.60   89.30   0
  -1   1  10  985.13   55.50   0
  -1   8   1  244.00   25.06   0
   0   9   0  220.81   31.13   0
  -2   2   4  817.11   34.32   0
  -2   5  13  599.27   38.55   0
  -2   8  15    6.95   31.77   0
  -1   4   0  868.22   39.90   0
  -2   2   8 1936.76   52.01   0
  -2   7   3  896.11   30.62   0
  -1   3  13  464.59   46.97   0
  -2   3   3 4056.56   66.18   0
  -2   3  10 2083.90   53.71   0
  -1   4  14    6.16   41.79   0
  -1  13   6  509.90   34.11   0
   0  14   5  221.46   37.51   0
  -2   2   5  804.32   34.81   0
  -2  12   9  147.55   24.37   0
  -1   9   2 1338.21   40.75   0
  -2   2   6 1492.01   44.33   0
  -2   8   4 1066.10   31.55   0
  -2  10   6    5.95   20.86   0
  -2  12  10  111.69   26.71   0
  -1  12   5  588.56   33.57   0
   0  10   1   18.91   27.86   0
  -2   4   3   28.57   14.30   0
  -2   4  11  406.27   33.49   0
  -2   5   3  737.20   29.46   0
  -2   5  12  129.79   29.88   0
  -2   9   5  319.14   22.76   0
  -2   9  14   13.72   29.51   0
  -2  11   8   55.90   21.46   0
  -1   7   1  640.17   32.24   0
  -1   7  16  321.96   44.72   0
  -1  10   3  852.50   35.21   0
  -1  11   4   72.36   24.27   0
   0  13   4   11.49   30.55   0
  -1  13   7  197.98   28.54   0
  -2   3   4  238.51   21.93   0
  -2  11   9  860.87   32.51   0
  -2  11  12  495.20   33.28   0
  -8   2   6  376.24   41.54   0
  -6   6  -1  178.52   23.45   0
  -3   5  -3  577.62   26.33   0
  -1  11  -2  457.32   42.02   0
   0   8  -3  488.35   38.34   0
  -6   2   0   66.87   19.28   0
  -5  -1   4  806.28   49.94   0
  -5   2  -1  327.39   22.64   0
  -1   8  -3  225.04   29.93   0
   0  11  -2    4.36   38.77   0
  -8   3   4   35.48   27.64   0
  -8   4   3  167.19   29.52   0
  -7   2   2  612.68   31.82   0
  -6   0   3 1055.21   41.83   0
  -5  -1   6  279.16   52.41   0
  -4  -1   2   78.72   25.36   0
  -4   1  -1 2111.32   45.97   0
  -2   4  -3 1253.90   35.37   0
  -2   7  -3  687.52   33.16   0
   0   2  -2 2293.09   74.11   0
  -8   5   3   63.40   27.62   0
  -7   1   4  228.55   32.79   0
  -4   3  -2 1974.18   40.74   0
  -4  10  -1   10.04   29.13   0
  -3   9  -2  154.51   28.38   0
  -2  10  -2  434.01   33.25   0
  -1   7  -3  359.75   29.33   0
   0   7  -3 1120.42   42.21   0
  -7   5   1  254.54   23.93   0
  -7   6   1  136.76   23.99   0
  -6   3   0 1211.67   33.90   0
  -5   1   0 1400.54   36.87   0
  -5   8  -1   15.32   19.98   0
  -4   7  -2  391.58   24.44   0
  -3   2  -2 1533.46   39.83   0
  -3  11  -1  104.70   30.77   0
   0   6  -3  589.52   33.24   0
  -8   4   4  247.29   31.73   0
  -6   7   0  514.65   30.19   0
  -5   3  -1 1340.06   34.45   0
  -4   4  -2  135.25   18.88   0
  -4   6  -2  517.64   26.18   0
   1  10  -2  441.40   45.33   0
  -7   1   5  857.14   44.51   0
  -7   2   3  615.93   34.32   0
  -6   0   4  122.31   30.77   0
  -6   4   0 1080.32   33.19   0
  -5   7  -1  440.49   26.42   0
  -4   5  -2  382.74   25.19   0
  -1  10  -2  210.66   32.65   0
  -1  12  -1   87.87   39.52   0
   4   4   0  137.88   34.66   0
  -8   3   6  187.96   35.84   0
  -8   5   4  418.04   33.23   0
  -7   1   6  718.79   44.46   0
  -6   1   2 2006.69   46.63   0
  -6   5   0  102.73   22.14   0
  -6   6   0  190.84   25.64   0
  -5   4  -1  443.89   24.63   0
  -5   6  -1  443.21   26.02   0
   0  10  -2  600.02   43.88   0
  -5   5  -1   29.57   20.52   0
  -2   2  -2 1289.48   40.37   0
  -2   9  -2  844.49   35.47   0
   2   5  -2  115.08   38.29   0
  -8   4   5  424.32   35.06   0
  -7   7   2   68.88   25.64   0
  -6   0   5 1319.66   53.51   0
  -5   0   2  525.73   32.04   0
  -5   9   0  615.08   31.06   0
  -4   2  -1  975.75   31.51   0
  -3   1  -1   31.48   16.42   0
  -3   3  -2  399.00   23.30   0
  -3  10  -1  652.18   35.61   0
  -2  11  -1  451.68   35.21   0
  -7   5   2  329.24   26.20   0
  -7   6   2  471.65   27.04   0
  -6   8   1  218.71   28.83   0
  -5   2   0 1612.99   38.15   0
  -3   0   0  260.76   23.91   0
   2   8  -2  269.03   41.22   0
  -8   5   5    7.10   29.58   0
  -7   2   4  191.65   28.76   0
  -7   3   3    9.38   23.43   0
  -6   0   6  164.74   36.93   0
  -6   3   1  609.50   27.30   0
  -4   8  -1  732.36   29.01   0
  -3   4  -2 1841.53   40.72   0
  -3   6  -2  219.58   21.18   0
  -2   8  -2  226.25   27.75   0
  -1   9  -2   49.56   25.23   0
   1   9  -2  137.19   35.74   0
  -5   1   1 2021.63   45.29   0
  -5   8   0  468.65   27.79   0
  -3   5  -2 1505.52   36.61   0
   0   9  -2  422.23   37.44   0
  -8   4   7  464.79   42.52   0
  -6   1   3   71.94   24.19   0
  -6   4   1  121.52   21.73   0
  -6   7   1    9.19   21.21   0
  -4   1   0 1050.60   35.13   0
  -4   7  -1  124.87   20.49   0
  -2  -2   6 1830.80   79.30   0
  -1  11  -1   74.74   28.66   0
   2   7  -2  567.11   48.83   0
  -8   5   6  238.28   32.77   0
  -7   2   5  576.48   36.66   0
  -7   4   3  665.15   31.78   0
  -7   7   3  245.98   28.28   0
  -6   5   1  627.48   28.47   0
  -6   6   1  661.21   29.86   0
  -5   3   0  553.74   25.09   0
  -5   7   0   46.69   21.25   0
  -4   3  -1   35.90   13.80   0
  -3   9  -1  506.78   29.43   0
  -3  11   0  202.94   29.24   0
  -2  -2   5   35.97   38.25   0
  -2   3  -2 2266.92   48.73   0
  -2  10  -1   74.26   28.47   0
  -2  12   0   47.77   29.81   0
   0   1  -1 3816.68  131.92   0
  -4   6  -1   98.61   21.06   0
  -2   1  -1 3689.92   73.08   0
  -1   8  -2  917.44   37.85   0
   0  11  -1  629.48   44.39   0
  -8   5   7  158.10   36.53   0
  -7   3   4  970.68   37.36   0
  -5   4   0  425.59   24.78   0
  -5   5   0 1783.78   38.95   0
  -5   6   0  317.92   26.30   0
  -5   9   1   -7.41   23.87   0
  -4   4  -1  854.02   28.27   0
  -4   5  -1 1529.72   36.12   0
  -4   9   0  180.04   25.41   0
  -2  -2   7  717.84   52.78   0
  -1  -2   5 4516.25   94.62   0
   0   3  -2 5825.22  100.34   0
   1   8  -2  908.78   46.08   0
   1  11  -1   68.39   39.51   0
  -7   2   6    0.27   31.38   0
  -6   8   2  203.15   28.34   0
  -5   0   3  454.32   31.58   0
  -3   2  -1 1626.35   41.40   0
  -2   0   0   88.20   22.19   0
  -2   4  -2  324.98   22.30   0
  -2   5  -2  207.86   20.93   0
  -1   3  -2   56.12   16.20   0
   0   8  -2   39.65   25.32   0
  -8   5   8  122.77   39.08   0
  -6   1   4  918.46   38.96   0
  -1   7  -2  871.54   34.99   0
  -1  12   0  524.18   38.00   0
  -7   2   7  534.37   41.51   0
  -7   4   4  485.26   29.84   0
  -5   2   1  140.10   18.46   0
  -3  10   0   29.59   24.60   0
  -2   9  -1  214.35   27.74   0
  -1   1  -1  153.06   24.48   0
  -1  10  -1  596.21   35.37   0
  -7   3   5   57.27   25.97   0
  -7   5   4  137.17   26.01   0
  -6   2   3  205.02   24.53   0
  -6   4   2  728.14   29.53   0
  -5   8   1  394.89   26.47   0
  -4   2   0   10.74   14.89   0
  -4   8   0  141.03   20.91   0
  -2  11   0  277.35   32.12   0
   1   7  -2 1579.13   54.61   0
  -6   5   2  393.76   24.65   0
  -6   6   2   -0.70   19.86   0
  -4  10   1   63.88   26.88   0
  -3   7  -1 1003.46   31.68   0
  -1  -2   4  108.20   27.93   0
  -1   4  -2 1477.88   41.79   0
   0   7  -2  477.64   31.61   0
   2  10  -1   64.66   40.77   0
  -5   7   1  543.00   29.32   0
  -3   3  -1 1372.94   36.26   0
  -1  13   1  426.50   39.81   0
   0  10  -1   33.11   33.22   0
   0  12   0   64.82   34.97   0
   3   9  -1  777.63   65.60   0
  -7   3   6  400.17   35.72   0
  -7   4   5  158.74   28.47   0
  -6   1   5  640.75   38.95   0
  -6   8   3   40.02   25.91   0
  -5   0   4 1973.83   57.52   0
  -5   3   1 1482.88   36.56   0
  -4   7   0  798.28   30.11   0
  -3  11   1  194.13   29.59   0
   1  -1   2 5667.33   89.62   0
   1   5  -2 1336.35   52.46   0
   1   6  -2   25.84   24.42   0
   1  10  -1  881.78   48.40   0
  -5   6   1  264.73   24.10   0
  -4   1   1 1501.29   41.71   0
  -4   3   0  716.32   27.97   0
  -3   1   0 3433.72   63.63   0
  -3   4  -1 1186.93   33.68   0
  -3   5  -1  194.49   19.94   0
  -2  12   1  480.88   35.57   0
  -1   9  -1  602.40   32.76   0
  -7   5   5  597.34   33.24   0
  -7   6   5  158.33   29.03   0
  -5   4   1 1886.12   39.64   0
  -5   5   1  232.01   23.14   0
  -4   6   0  748.28   29.56   0
  -4   9   1  605.05   27.24   0
  -2   2  -1 4625.17   73.99   0
  -1  11   0  293.83   31.91   0
   2   0   1  551.07   30.42   0
  -7   3   7  438.84   36.54   0
  -6   1   6  462.85   37.98   0
  -6   2   4  428.68   29.49   0
  -6   7   3  168.51   22.88   0
  -4   4   0 1081.34   31.84   0
  -4   5   0   12.25   16.07   0
  -2  10   0  646.29   32.71   0
   0  13   1   90.85   41.34   0
  -7   3   8    4.73   35.64   0
  -7   4   6  702.08   36.80   0
  -6   6   3  848.25   30.71   0
  -5   2   2 1867.16   42.98   0
  -5   8   2  233.36   25.73   0
  -6   5   3  176.91   21.52   0
  -5   1   3 1400.75   43.48   0
  -3   8   0  714.34   28.14   0
   0   9  -1  451.53   34.33   0
  -7   5   6  152.52   28.17   0
  -7   6   6  115.04   30.42   0
  -6   8   4  604.75   33.38   0
  -5   0   5   37.23   29.22   0
  -4   8   1  454.02   26.55   0
  -4  10   2  537.72   28.26   0
  -7   4   7    8.57   28.96   0
  -6   3   4   11.42   23.61   0
  -5   7   2  196.54   25.05   0
  -2   3  -1  127.26   18.70   0
  -2   6  -1  264.65   22.19   0
  -1   8  -1   49.46   23.72   0
  -1  12   1    4.79   27.42   0
   0  11   0  203.05   34.34   0
   2   9  -1  181.98   37.33   0
  -6   2   5  215.01   27.61   0
  -5   3   2 1719.81   39.40   0
  -5   9   3   35.13   24.60   0
  -4   2   1 3232.12   55.39   0
  -3   2   0 4256.60   66.02   0
  -2  11   1  221.34   28.74   0
   1   9  -1  772.55   44.48   0
  -7   4   8  448.95   40.61   0
  -7   5   7  190.05   30.69   0
  -7   6   7  410.67   34.61   0
  -7   7   7   57.59   30.62   0
  -6   7   4  231.29   23.24   0
  -5   6   2 1061.75   33.33   0
  -4   7   1   22.66   19.39   0
  -4  11   3   18.07   25.90   0
  -3   7   0    6.74   17.63   0
  -2   4  -1 3367.09   57.48   0
  -2   5  -1 1584.20   39.38   0
  -1  10   0    8.70   24.33   0
   3   8  -1  100.02   47.65   0
  -6   6   4  100.72   20.81   0
  -5   4   2    2.92   16.93   0
  -5   5   2  417.27   25.84   0
  -1   2  -1   46.22   17.59   0
  -1  13   2  270.27   34.13   0
   1  11   0  524.62   43.47   0
  -5   0   6  735.67   47.97   0
  -5  10   4  360.14   31.25   0
  -4   9   2   23.50   20.03   0
  -3  -1   3  394.88   44.56   0
  -3   6   0  895.08   29.82   0
  -3   9   1   53.65   19.22   0
  -2  12   2   37.91   29.21   0
   0   8  -1 1921.30   50.71   0
   2  11   0  277.56   43.55   0
  -7   6   8   24.34   29.58   0
  -7   7   8  304.00   34.91   0
  -6   2   6 1252.24   46.33   0
  -6   8   5  111.44   24.01   0
  -5   8   3  810.07   32.82   0
  -4   0   3  559.35   35.24   0
  -4   6   1 1261.86   33.77   0
  -3   3   0  303.00   21.56   0
   0  12   1  375.35   36.21   0
  -7   5   9  102.40   37.75   0
  -6   3   5  855.21   36.23   0
  -5   1   4   96.83   24.22   0
  -4   1   2 1418.08   42.19   0
  -4   4   1   11.31   15.96   0
  -4   5   1 1428.44   35.26   0
  -3   5   0 2256.75   43.88   0
  -2   1   0 1678.33   52.74   0
  -7   6   9  319.41   38.31   0
  -6   7   5  682.25   31.59   0
  -5   0   7  401.24   45.71   0
  -5   7   3  522.74   28.62   0
  -4  -1   6 2218.91   95.66   0
  -4  10   3  430.38   27.93   0
  -3   4   0  640.46   25.51   0
  -2  10   1   94.88   23.92   0
  -1  11   1  336.08   32.27   0
   0  10   0  831.80   39.73   0
  -6   2   7  149.27   34.48   0
  -6   4   5  430.13   30.07   0
  -5   9   4  358.55   29.73   0
  -4   8   2  654.76   28.97   0
  -3  10   2  218.44   26.07   0
  -1   9   0  543.67   31.68   0
   1   8  -1    9.44   26.24   0
  -7   6  10   42.78   36.30   0
  -5   3   3  141.43   19.58   0
  -4  11   4  293.67   28.47   0
  -3   1   1 4073.72   72.39   0
  -3   8   1  488.14   25.91   0
  -2  -1   2   62.89   37.65   0
  -1   3  -1 8563.15  106.74   0
   2   8  -1 1024.63   53.30   0
  -6   2   8  513.08   41.05   0
  -6   3   6  208.68   29.11   0
  -5   6   3   63.11   20.91   0
  -5  10   5    9.35   27.73   0
  -1   5  -1  722.50   31.38   0
   0   7  -1  547.91   31.23   0
   1  12   1   34.57   36.84   0
  -5   4   3  860.84   30.22   0
  -5   5   3  789.75   30.07   0
  -5   8   4   14.06   21.60   0
  -4   7   2 1251.86   34.52   0
  -3  11   3  498.87   32.86   0
  -2   7   0 1724.49   39.46   0
  -2  11   2  463.54   30.82   0
  -1   4  -1 2372.38   53.30   0
  -1  12   2  297.07   32.34   0
   0   2  -1 2311.82   80.84   0
   0  14   3    3.54   37.44   0
   1   0   0    7.38   16.50   0
  -5   1   5 1114.06   44.70   0
  -4   2   2  583.23   28.38   0
  -4   9   3  954.81   33.46   0
   1  -1   1  171.28   22.41   0
   1  10   0   -1.54   32.80   0
  -6   4   6  210.65   27.50   0
  -5   2   4  504.33   29.57   0
  -3   0   2 2460.16   68.53   0
  -3   7   1 1790.22   39.90   0
   2  12   1  761.62   49.85   0
  -6   3   7  146.27   30.95   0
  -5   7   4  683.18   30.16   0
  -4   6   2  222.29   22.30   0
  -3   9   2  696.31   28.10   0
  -2   2   0 1547.97   46.05   0
  -2   6   0 1461.20   37.32   0
  -2  12   3  319.15   32.02   0
  -1  13   3   87.38   29.18   0
   0  11   1  239.28   30.98   0
   1  13   2  214.76   38.85   0
   3  10   0   18.20   42.08   0
  -4   0   4  167.52   29.90   0
  -4   3   2  184.07   20.74   0
  -4  10   4   20.36   21.92   0
  -1  10   1  533.12   30.96   0
   0   9   0  235.28   29.23   0
   2  10   0  805.43   47.39   0
  -6   7   7  499.61   33.07   0
  -4   4   2 1607.91   38.36   0
  -4   5   2  968.99   30.96   0
  -4   8   3  115.23   24.37   0
  -4  11   5  185.73   28.02   0
  -3   2   1  164.25   20.08   0
  -3   6   1  253.03   21.07   0
  -6   3   8  696.52   42.30   0
  -6   4   7  540.75   33.36   0
  -5   6   4  418.23   25.01   0
  -3  10   3  175.25   22.24   0
  -2   5   0   17.95   15.86   0
   1  14   3  469.81   45.18   0
  -6   5   7  335.69   31.72   0
  -6   6   7   65.81   26.27   0
  -6   8   8   36.30   30.32   0
  -5   4   4  302.84   22.78   0
  -5   5   4   10.83   18.85   0
  -5   8   5  762.09   30.92   0
  -3   5   1  851.72   30.00   0
  -2   3   0 5822.97   79.57   0
  -2   4   0 2908.11   54.79   0
  -2   8   1  509.80   26.39   0
   0  12   2    7.80   28.19   0
   2   0   0  101.45   21.11   0
  -4   9   4  263.54   27.13   0
  -3   3   1  606.42   28.02   0
  -3   4   1 2030.31   43.48   0
  -3   8   2  224.00   23.04   0
  -3  11   4   24.92   22.17   0
  -1  11   2   90.65   25.96   0
   0   3  -1  208.69   25.91   0
  -5   9   6   98.00   23.89   0
  -4   7   3  296.54   24.67   0
  -4  -2 -14   28.49   37.86   0
   0   6  -5  792.27   32.27   0
   0   7  -4   17.93   21.26   0
   0   9  -1  432.70   32.65   0
   0   9   4  466.96   43.31   0
  -3  -6 -10   20.99   32.10   0
  -2  -2 -11  700.77   38.11   0
  -2   2 -11  566.46   33.23   0
  -1   5  -8  179.36   29.16   0
   0   4  -6  243.41   22.66   0
  -3  -4 -12  319.63   34.72   0
  -2   1 -11  286.07   31.84   0
  -2   4 -10  662.22   41.76   0
  -1  -2   1 4178.89   80.39   0
  -1   2  -9  153.16   24.95   0
  -1   9  -4   35.83   29.89   0
  -4  -7 -11  181.56   44.36   0
  -3   2 -12  378.47   42.77   0
  -2  -1 -11  592.08   33.59   0
  -1   0  -9  552.78   29.00   0
  -1   1  -9 1593.65   42.20   0
  -1   6  -7   30.30   24.88   0
   0   0  -5 6346.56   88.41   0
   0   2  -6  625.71   28.93   0
   0   3  -6    7.24   16.73   0
   0   8  -2   48.30   25.34   0
   0   9   0  251.45   28.08   0
  -3  -7  -4  609.72   47.11   0
  -3  -5 -11   15.27   30.41   0
  -2  10  -4   94.25   38.23   0
  -1   4  -8   14.48   25.86   0
  -1  10  -2  188.45   33.64   0
   0   5  -5  331.73   24.27   0
   0   9   3  812.28   46.91   0
  -3  -3 -12   72.05   29.78   0
  -2  -3 -10 1541.46   47.93   0
  -2   3 -10  485.36   33.95   0
  -2   5  -9  481.15   38.04   0
  -1  11   1  391.36   42.86   0
   0   9   1 1124.61   42.85   0
   0   9   2   90.53   30.21   0
  -2  11  -2   50.62   38.34   0
  -4  -4 -13   76.73   35.48   0
  -3  -2 -12  742.12   40.42   0
  -3   0 -12   17.37   30.87   0
  -2  -4  -9  715.02   39.93   0
  -2   6  -8    0.45   30.52   0
  -2   9  -5   92.33   35.41   0
  -1   3  -8  650.77   32.09   0
  -1   5  -7  557.17   32.68   0
  -1   9  -3  736.65   37.53   0
  -1  11   2   86.97   35.59   0
   0   4  -5 2127.27   45.89   0
   0   8  -1 1818.01   47.81   0
  -5  -4 -14   11.69   42.36   0
  -3  -1 -12  505.14   36.77   0
  -2   2 -10    9.90   24.30   0
  -2   7  -7  360.27   33.38   0
  -1  -1  -8 2088.81   48.15   0
  -1  11   3 1139.24   53.75   0
   0   0  -4 2003.07   55.77   0
   0   1  -5 1713.96   44.67   0
  -5  -3 -14  207.96   44.95   0
  -4  -3 -13  248.87   36.63   0
  -4  -2 -13  635.00   43.89   0
  -4  -1 -13  134.02   39.40   0
  -2  -5  -7  307.99   42.61   0
  -2  -2 -10  546.42   32.46   0
  -2   4  -9   -8.81   30.40   0
  -1   6  -6 1096.72   38.91   0
  -1   7  -5   -4.25   21.85   0
   0   2  -5  425.15   25.38   0
   0   3  -5 1786.58   41.84   0
   0   5  -4 2618.10   50.87   0
  -2   1 -10  648.82   33.11   0
  -2  10  -3  209.89   37.00   0
  -1   0  -8 1104.68   36.26   0
  -1   1  -8   69.21   21.18   0
   0   6  -3  557.38   28.28   0
   0   8   0  242.85   27.88   0
  -3  -4 -11  356.78   34.96   0
  -3   2 -11    3.48   26.38   0
  -3   4 -10   31.21   35.36   0
  -1   4  -7  776.72   34.44   0
  -3  -6  -9 2283.59   78.25   0
  -2   5  -8  522.35   35.99   0
  -2   9  -4  770.12   44.77   0
  -1   9  -2   44.59   26.58   0
  -1  10   0   17.48   29.69   0
   0   4  -4   94.24   19.31   0
   0   8   1  814.89   38.93   0
  -4  -5 -12    2.07   34.38   0
  -3   1 -11  442.29   36.00   0
  -3   5  -9  179.24   38.90   0
  -2   3  -9  627.43   35.02   0
   0   0  -3  952.08   45.50   0
   0   1  -4  889.41   36.46   0
  -2   7  -6   24.74   25.45   0
  -1   3  -7   17.15   20.08   0
  -1   5  -6  134.38   25.05   0
   0   3  -4 1073.12   35.95   0
   0   5  -3  880.57   32.86   0
   0   8   2 1163.02   47.80   0
   0   8   3   66.14   29.44   0
  -3  -5 -10 1288.05   52.28   0
  -3  -3 -11 1333.17   46.01   0
  -3   3 -10  226.39   32.92   0
  -3   6  -8  327.58   38.26   0
  -2  -3  -9   80.01   24.19   0
  -2  10  -2  466.71   39.61   0
  -1   6  -5  942.68   35.82   0
  -1   7  -4  725.66   33.19   0
  -1  10   1  583.01   42.70   0
   0   6  -2 2211.36   48.15   0
  -5  -5 -13   48.65   38.86   0
  -4   0 -12  783.72   44.98   0
  -3  -2 -11  249.73   32.21   0
  -3  -1 -11  223.75   32.46   0
  -3   7  -7  254.87   37.65   0
  -2   4  -8  929.43   41.23   0
  -1  -1  -7 1853.14   47.16   0
  -1   9  -1  649.31   36.94   0
  -4  -7 -10  658.17   52.98   0
  -4  -6 -11  140.91   35.76   0
  -4  -4 -12  556.92   41.86   0
  -2  -4  -8   -1.41   24.55   0
  -1  -3   0   35.28   19.43   0
  -1   2  -7  586.54   28.79   0
   0   0  -2 3114.55   95.69   0
   0   7   0 2162.73   52.94   0
  -5  -4 -13  663.26   49.07   0
  -5  -2 -13    4.16   37.69   0
  -4  -1 -12  167.37   37.36   0
  -3   4  -9  578.48   41.83   0
  -3  10  -3  338.09   44.06   0
  -2   1  -9   35.32   22.92   0
  -2   9  -3   -1.35   32.74   0
  -2  11   1  223.43   43.19   0
  -1   0  -7  112.05   20.17   0
  -1   1  -7 1820.99   44.43   0
   0   4  -3 2389.72   51.54   0
  -5  -3 -13  392.05   40.82   0
  -4  -3 -12  845.88   43.76   0
  -4  -2 -12   72.64   34.83   0
  -4   2 -11  431.72   41.00   0
  -3   2 -10 1032.91   39.88   0
  -3  11  -1   80.68   41.79   0
  -2   5  -7  139.09   28.69   0
  -1  -2  -6    9.12   22.33   0
  -1   8  -2  861.79   39.40   0
  -2   0  -9  474.36   29.12   0
  -2   6  -6  133.67   27.88   0
  -2  10  -1   75.33   33.75   0
  -1   5  -5 2067.57   47.05   0
  -1  10   5   31.27   39.97   0
   0   1  -3 2993.34   68.04   0
   0   3  -3 1839.15   47.79   0
   0   5  -2 1730.75   44.25   0
   0   7   1   45.14   23.29   0
  -3   5  -8  186.62   34.06   0
  -3   9  -4   19.36   34.79   0
  -2   3  -8   43.37   25.08   0
  -1   6  -4  431.81   29.82   0
  -1   9   0  580.83   37.06   0
   0   2  -3  692.37   33.19   0
   0   7   4 2135.68   85.59   0
  -3  -4 -10  711.23   39.27   0
  -3   1 -10  245.31   28.67   0
  -3   6  -7   92.60   31.98   0
  -1   3  -6 2002.49   44.58   0
  -5  -6 -12  279.65   40.48   0
  -4   3 -10  281.99   38.92   0
  -3   3  -9  195.94   30.79   0
  -3   7  -6  486.95   37.49   0
  -2  -5  -6 1958.39   94.26   0
   0   7   2 2259.45   63.32   0
  -5   0 -12    4.08   39.56   0
  -4  -5 -11  729.41   45.39   0
  -3  10  -2    4.54   36.50   0
  -3  11   0  251.99   47.52   0
  -2   4  -7  232.75   29.23   0
   0   4  -2  242.67   22.73   0
   0   7   3  356.75   37.54   0
  -3  -3 -10    7.02   24.52   0
  -2  -3  -8  842.07   39.98   0
  -1  -1  -6 1976.92   51.97   0
  -1   2  -6  436.82   26.23   0
  -1   8  -1   40.63   26.66   0
  -1   9   1  167.58   30.00   0
   0   5  -1 2842.32   59.77   0
  -6  -5 -13  310.12   45.98   0
  -6  -3 -13  208.20   44.44   0
  -5  -1 -12  321.88   42.94   0
  -4   4  -9    5.13   35.61   0
  -3  -2 -10  964.27   41.60   0
  -2   5  -6  815.15   37.57   0
  -2  11   3    6.79   38.02   0
  -6  -4 -13   21.35   43.26   0
  -3  -6  -8  186.48   40.76   0
  -3  -5  -9 1154.95   49.90   0
  -3   2  -9  229.14   31.81   0
  -3   4  -8  151.01   32.63   0
  -3   9  -3  588.00   42.78   0
  -1   0  -6 2967.51   58.41   0
  -1   1  -6  163.36   21.02   0
  -1   5  -4  324.52   25.47   0
   0   1  -2  215.25   26.58   0
   0   1   3  100.03   23.52   0
   0   3  -2 5608.88   85.92   0
  -5  -2 -12  484.88   42.58   0
  -4  -4 -11  856.84   44.15   0
  -4  -1 -11  565.98   38.06   0
  -4   2 -10   13.29   27.36   0
  -4   5  -8  304.82   41.25   0
  -2   6  -5  458.55   30.16   0
  -2   7  -4   -1.80   26.30   0
  -1   6  -3 1653.29   42.82   0
  -5  -4 -12  292.43   40.46   0
  -5  -3 -12  120.63   35.19   0
  -4  -3 -11   44.21   28.83   0
  -4  -2 -11  710.59   39.62   0
  -3   5  -7  720.78   39.60   0
  -3  11   1  215.81   44.54   0
  -2   0  -8  606.85   29.88   0
  -2   3  -7  693.16   33.05   0
   0   2  -2 2289.97   60.42   0
  -4   6  -7  368.85   40.40   0
  -4   7  -6  113.36   40.60   0
  -3   6  -6  337.61   31.80   0
  -3   7  -5    3.77   30.57   0
  -2  -1  -8  355.42   26.09   0
  -2   9  -1  239.79   33.12   0
  -2  10   1  114.91   37.22   0
  -1  -2  -5 5675.62  103.65   0
  -1   8   0 1979.92   52.07   0
  -1   9   2 1450.76   51.68   0
   0   4  -1 1494.13   46.94   0
   0   4   6 1273.01   54.37   0
   0   5   0   41.75   21.16   0
  -4   1 -10  595.47   34.58   0
  -4   3  -9  476.73   36.63   0
  -4  11   0  137.89   46.01   0
  -3   3  -8 1242.90   43.25   0
  -2   4  -6 1192.30   39.82   0
  -2   2  -7  276.51   25.36   0
  -2   8  -2  248.35   32.50   0
  -1   2  -5 1020.45   35.11   0
  -1   4  -4 2415.71   50.62   0
   0   6   2  693.51   42.26   0
  -5   2 -10  429.50   38.01   0
  -4   9  -3   90.43   37.60   0
  -3  -4  -9   27.54   24.82   0
  -3   0  -9  942.65   37.50   0
  -3   9  -2  184.56   34.24   0
  -2   5  -5    8.40   23.61   0
  -1   9   3   11.02   30.96   0
  -6  -2 -12   17.86   39.06   0
  -4   4  -8  463.82   38.06   0
  -3   4  -7  651.96   38.20   0
  -3  11   2  129.62   41.72   0
  -2   6  -4 1099.37   38.18   0
  -1   5  -3  479.19   27.92   0
  -1   6  -2    5.25   19.81   0
   0   3  -1  197.32   23.47   0
  -5  -1 -11   64.80   36.14   0
  -3   2  -8  373.88   32.84   0
  -3   8  -3  123.29   32.49   0
  -3  10   0    8.99   33.47   0
  -2   9   0  513.31   36.46   0
  -1  -1  -5 5264.32   88.49   0
  -1   1  -5 2257.54   52.33   0
  -1   8   1  259.33   30.89   0
   0   1   4 2012.03   55.77   0
   0   6   3 1413.02   65.78   0
  -6  -3 -12  588.97   43.41   0
  -4  -5 -10  181.39   34.25   0
  -4   5  -7   46.08   29.60   0
  -4   7  -5  465.91   41.44   0
  -4  10  -1    8.98   37.63   0
  -4  11   1   86.37   46.64   0
  -3  -3  -9 1764.52   50.99   0
  -3   5  -6    5.54   27.05   0
  -2   1  -7   40.88   20.54   0
  -1   0  -5   85.06   19.52   0
  -1   9   4 1328.56   57.39   0
   0   1  -1 3740.40  107.12   0
   0   2  -1 2208.19   69.49   0
   0   4   0 3508.82   77.78   0
  -6  -5 -12    6.54   39.98   0
  -6  -4 -12  539.22   42.71   0
  -5   3  -9  155.01   37.80   0
  -4   6  -6  176.54   29.71   0
  -3   6  -5  378.26   30.73   0
  -2   3  -6  415.65   28.29   0
  -1   3  -4 1295.56   39.23   0
   0   6   4   19.93   34.22   0
  -6   0 -11  115.00   39.92   0
  -5  -2 -11  181.68   35.77   0
  -5   1 -10   87.28   34.30   0
  -2   0  -7 1981.39   47.58   0
  -5  -5 -11   65.99   36.85   0
  -5  -3 -11  683.37   43.59   0
  -4  -4 -10  165.72   32.82   0
  -4  -2 -10  643.21   39.36   0
  -4   3  -8   93.29   32.91   0
  -3  -8  -4  274.01   40.82   0
  -3   9  -1  515.95   40.96   0
  -2   8  -1 1368.13   46.54   0
  -1   9   5  174.64   38.05   0
  -5  -4 -11  338.60   38.92   0
  -5   4  -8  166.01   37.52   0
  -4  -3 -10 1222.21   46.45   0
  -4   1  -9   41.50   26.84   0
  -4   9  -2  395.37   41.13   0
  -3   1  -8  232.44   28.90   0
  -3   3  -7   46.24   25.81   0
  -2  -1  -7 2232.81   51.37   0
   0   0   3 1018.08   41.02   0
  -5   5  -7  356.01   39.24   0
  -3  -5  -8  546.80   42.16   0
  -1   4  -3    8.41   17.45   0
  -1   8   2  749.61   40.48   0
   0   5   7  117.91   34.53   0
  -7  -3 -12    7.64   40.05   0
  -6  -1 -11  627.06   44.26   0
  -5   2  -9  155.97   31.57   0
  -4   4  -7  371.11   37.27   0
  -2   2  -6 3306.50   57.20   0
  -2   5  -4  713.01   32.67   0
  -2   6  -3   13.45   22.27   0
  -1   2  -4  140.45   21.38   0
  -1   5  -2 1166.71   38.27   0
  -7  -4 -12  197.37   43.69   0
  -4   8  -3  502.28   39.22   0
  -3   0  -8  869.01   36.78   0
  -3   4  -6  480.64   33.22   0
  -3   8  -2  646.08   38.50   0
   0   3   0 3772.12   91.50   0
  -7  -5 -12  474.53   49.56   0
  -5  -7 -10  486.33   46.25   0
  -4   0  -9  363.46   31.70   0
  -4   5  -6 1289.17   45.62   0
  -2  10   4  119.19   37.06   0
  -6  -2 -11  325.90   41.31   0
  -4   2  -8  426.19   34.65   0
  -4   6  -5  280.18   30.67   0
  -3   6  -4  147.79   27.05   0
   0   4   1  185.95   31.12   0
  -5   3  -8  602.87   39.50   0
  -3  -1  -8 1278.25   41.75   0
  -2   1  -6 2221.27   50.75   0
  -2   3  -5 1711.61   44.73   0
  -2   8   0  204.61   31.21   0
  -1   1  -4 3824.12   70.83   0
  -6  -3 -11   20.04   35.39   0
  -6   2  -9  347.57   39.41   0
  -3  -4  -8 1549.74   53.25   0
  -2   9   2   11.97   30.83   0
  -1   3  -3 1790.01   48.04   0
  -1   7   1  686.40   36.55   0
  -5   4  -7  351.76   38.18   0
  -5   8  -3   62.84   38.57   0
  -4   3  -7 1148.37   44.54   0
  -3   3  -6  783.24   37.83   0
  -2   4  -4   38.87   20.80   0
  -1   0  -4 4885.74   86.22   0
  -1   5   2 1197.49   54.56   0
  -1  10   2  269.52   35.85   0
   0   5   3  865.22   46.47   0
   2  12   5  345.55   34.26   0
   3   4   4   97.88   34.22   0
   4   9   6  609.69   36.91   0
   6   9   6  293.11   40.96   0
   7  10   6  673.57   50.25   0
   8   8   5   12.59   47.17   0
  -3   8  -2  595.79   55.77   0
   4  12   6  388.65   32.89   0
   5   4   4  282.73   46.43   0
   5  13   6  437.18   36.25   0
   7   5   4  172.46   47.73   0
   7   7   5  303.20   48.07   0
   7  11   6  119.16   39.87   0
   7  12   6  105.60   39.98   0
   8   6   4    7.00   49.04   0
  -4   0  -6   71.19   52.48   0
   0  11   3   61.49   30.91   0
   1   6   4 3058.64   69.25   0
   2   8   5   56.41   25.30   0
   2  11   5  349.71   33.91   0
   3  13   5   18.49   28.98   0
   4  10   6   15.60   28.24   0
   5  -2  -1  147.28   62.87   0
   5   6   5   22.73   34.95   0
   6  10   6   14.46   34.48   0
  -1   9   2 1446.05   49.80   0
  -1  11   1  416.18   39.59   0
  -1  12   0  567.63   50.06   0
   0   3   2  586.05   47.63   0
   1  11   4    3.41   25.02   0
   1  13   3   56.81   34.53   0
   2  10   5 1277.00   44.34   0
   5  10   6  841.33   39.26   0
   5  11   6  169.74   28.04   0
  -3   3  -2  368.86   62.04   0
  -2   9   0  509.45   46.56   0
   0  12   2   22.62   34.31   0
   0  13   1   70.30   38.41   0
   2   9   5  563.41   32.56   0
   2  13   4  -15.80   31.07   0
   8   9   5  371.27   49.12   0
  -2  10  -1   65.78   41.96   0
  -1   3   1 4175.83  114.67   0
  -1   6   2 1698.25   56.02   0
   1   7   4 1460.05   48.46   0
   2   5   4 2789.89   71.33   0
   3   7   5  446.03   33.94   0
   3  12   5  398.88   34.93   0
   6   3   3 1422.08   78.93   0
  -3   7  -2  584.94   51.16   0
   0   6   3 1414.83   50.62   0
   1  10   4  459.71   32.39   0
   4  13   5  354.87   36.30   0
   6   7   5  556.39   44.80   0
  -1  12  -1   98.38   47.70   0
   0   9   3  801.98   36.28   0
   1   4   3 5850.07  109.53   0
   1   8   4  179.75   27.80   0
   1   9   4  907.96   38.83   0
   7   8   5  723.79   48.82   0
   8  11   5   25.94   38.86   0
  -2   8   0  180.99   35.12   0
  -1  10   1  547.24   38.15   0
   0   7   3  344.32   30.01   0
   0   8   3   57.95   24.61   0
   0  13   0  458.68   46.76   0
   2  12   4  287.73   30.01   0
   3   8   5 1646.60   48.00   0
   3  11   5  943.90   39.67   0
   4   7   5 1122.13   44.86   0
   5  13   5   -2.15   30.99   0
  -1  11   0  309.83   40.90   0
   0  11   2  400.13   35.05   0
   1  13   2  186.97   35.84   0
   3   9   5  237.76   28.36   0
   3  10   5  114.90   29.45   0
   3  13   4  492.02   36.64   0
   4  12   5  187.78   32.12   0
   6  13   5  513.43   43.36   0
   7  12   5  136.25   41.07   0
   8   7   4  437.43   53.55   0
  -3   6  -2  211.37   42.22   0
   0  12   1  375.68   38.87   0
   6   5   4  977.24   53.81   0
   7   9   5   97.20   36.66   0
   9  10   4   65.94   51.03   0
  -2   7   0 1775.08   57.97   0
  -2   9  -1  223.52   41.46   0
   2   6   4  512.51   35.00   0
   2  11   4 1081.17   40.49   0
   4   8   5   19.73   26.30   0
   4  11   5   10.68   26.61   0
   5  12   5  205.60   28.21   0
   6   8   5  149.20   36.23   0
   7  10   5  174.61   37.56   0
   8   5   3  601.78   58.79   0
  -2   5   0   13.44   31.43   0
   1  11   3  753.65   36.70   0
   3   5   4  318.74   31.81   0
   4  10   5  641.19   34.79   0
   7   4   3 1779.83   74.66   0
   7   6   4  794.53   54.34   0
  -4   3  -5  720.26  100.94   0
  -3   5  -2 1463.11   69.91   0
  -2   6   0 1459.08   55.64   0
  -1   9   1  189.56   32.77   0
   2  10   4  166.58   28.72   0
   4   9   5  780.06   37.27   0
   4  13   4   96.52   32.84   0
   5  11   5  595.12   32.42   0
   6   9   5  733.98   41.58   0
   1  13   1  280.89   36.63   0
   3   3   3 2981.25   91.26   0
   5   3   3  465.48   51.55   0
   5   5   4 1327.80   57.12   0
   5   9   5  328.99   30.45   0
   5  10   5  107.58   27.04   0
   8   8   4  599.58   52.14   0
  -1  11  -1   91.85   38.83   0
   0   4   2 1205.64   53.44   0
   1  -3  -2 2555.40   81.41   0
   1  10   3  508.12   32.04   0
   2   7   4  964.83   37.73   0
   2   9   4  346.36   28.82   0
   2  12   3  529.53   32.20   0
   5  13   4  349.83   34.80   0
  -3  -1  -4   66.07   34.86   0
  -3   7  -3  170.80   43.66   0
  -1   4   1 2358.89   77.82   0
  -1  10   0   -4.82   30.61   0
   0  11   1  237.78   32.29   0
   0  12   0   80.80   33.45   0
   2   8   4 1260.80   40.34   0
   3  13   3  192.21   29.66   0
   8   9   4   31.53   37.18   0
   8  10   4  268.59   41.65   0
   8  11   4  346.13   45.37   0
  -2   8  -1 1337.26   54.29   0
  -1   8   1  224.46   30.12   0
   3  11   4   -1.72   25.70   0
   4  12   4   67.52   30.61   0
   7   7   4  296.37   42.38   0
   1   9   3  220.37   26.28   0
   1  13   0   15.36   35.53   0
   3   6   4 2842.36   63.17   0
   6   2   2   22.76   50.78   0
   6   6   4   20.45   32.16   0
  -2   9  -2  816.41   50.40   0
   1   6   3  400.53   32.54   0
   2  11   3  148.38   26.30   0
   3  10   4 1140.48   40.63   0
   6  12   4  111.08   33.82   0
   9   9   3   11.01   48.44   0
   9  10   3  353.13   51.70   0
  -1   5   1   18.13   27.57   0
  -1  11  -2  409.00   44.87   0
   0   8   2 1153.90   40.97   0
   0  12  -1  346.92   38.00   0
   1   7   3 3319.14   64.78   0
   1   8   3 1254.98   42.49   0
   1  12   1   27.92   31.05   0
   2   4   3  435.87   35.88   0
   4  11   4  620.18   34.14   0
   4  13   3  455.58   37.46   0
   7   8   4   93.91   33.66   0
   7  11   4   23.17   35.52   0
   0   5   2  477.26   35.62   0
   3   7   4  575.63   33.15   0
   3   8   4  250.48   27.24   0
   3  12   3   55.52   25.34   0
   4   6   4    1.37   22.00   0
   7   9   4  740.96   44.10   0
  -1   9   0  555.71   36.58   0
  -1  10  -1  625.24   42.48   0
   0   7   2 2156.52   53.33   0
   0  10   1    6.54   26.95   0
   2  12   2   73.48   27.83   0
   3  13   2  221.37   31.00   0
   5  11   4   17.94   23.91   0
   6   4   3   24.31   37.48   0
   8   4   2  766.53   62.23   0
  -3   6  -3 1027.79   56.47   0
   0   6   2  704.28   36.05   0
   0  11   0  182.16   31.90   0
   2  10   3  311.56   29.60   0
   4  10   4  497.08   31.65   0
   7   5   3  297.35   44.91   0
   0   2   1 2700.06  105.55   0
   0  12  -2  239.33   40.40   0
   1  10   2   65.22   24.10   0
   4   7   4 1133.19   40.06   0
   4   9   4  162.05   26.45   0
   4  12   3  553.20   35.17   0
   6   8   4  574.14   40.89   0
   7   3   2  617.13   60.73   0
   8   7   3   59.63   44.31   0
   8  11   3  120.55   39.62   0
  -2   9  -3    0.69   39.70   0
   2   2   2  887.60   60.57   0
   3  11   3  738.18   35.05   0
   4   8   4 1536.38   42.82   0
   5   9   4  845.15   36.54   0
  -2   8  -2  239.09   38.99   0
   2   5   3 2375.34   61.77   0
   4  13   2  389.87   35.05   0
   5  12   3  103.12   26.99   0
   6  12   3  358.34   34.85   0
   8   8   3  339.48   45.33   0
   8  10   3   88.93   38.30   0
   2  11   2  899.32   35.17   0
   3   4   3 3150.97   76.99   0
   3  12   2  643.21   33.79   0
   3  13   1  380.17   38.25   0
  -2  -2  -3 6438.17  129.26   0
  -2   6  -1  277.13   34.06   0
  -1  10  -2  175.40   38.30   0
   0  11  -1  575.98   39.08   0
   1   9   2 1114.18   38.93   0
   2   8   3  989.42   37.42   0
   4  11   3   14.61   28.91   0
   5   4   3 1479.52   58.87   0
   7  11   3  368.07   37.92   0
  -1  -2  -2 3611.57  103.33   0
   0  10   0  830.64   39.17   0
   2   6   3 3791.26   69.58   0
   3  10   3  742.00   34.09   0
   7   6   3  314.76   40.70   0
   9   8   2  342.97   48.73   0
   9   9   2  364.99   49.54   0
  -3   5  -3  592.01   50.41   0
  -1   9  -1  575.54   38.27   0
   1  12  -1  276.28   34.53   0
   2   7   3   34.84   17.93   0
   5  11   3  591.50   32.68   0
   6  11   3   66.04   29.23   0
   7  10   3  259.15   37.40   0
   0  -3  -2  600.59   41.52   0
   4  12   2   11.68   27.38   0
   5   2   2 1735.43   82.79   0
   6   5   3  853.84   47.18   0
  -2   5  -1 1652.25   59.06   0
  -1   7   0  195.80   28.53   0
   1   8   2  574.61   30.81   0
   2  10   2  751.10   35.09   0
   3   9   3   -1.61   21.67   0
   7   7   3  668.91   43.16   0
   7   9   3    0.34   30.85   0
   8   5   2   10.97   39.72   0
  -1  10  -3  200.57   38.96   0
   0  11  -2   11.70   30.42   0
   1   4   2   81.38   24.64   0
   1  11   0  489.20   33.77   0
   3   5   3  606.78   34.95   0
   3  11   2  289.02   28.60   0
   3  12   1    6.57   22.91   0
   6  12   2   14.19   31.09   0
   7   8   3  464.51   38.67   0
  -3   6  -4  119.04   40.49   0
  -2   4  -1 3535.21   90.84   0
  -2   7  -2  768.87   44.53   0
  -2   8  -3  480.72   41.75   0
   1  12  -2  146.23   35.95   0
   2  11   1  449.71   28.74   0
   3   8   3 1433.99   40.55   0
   5  10   3  816.16   33.42   0
   1   7   2   14.65   19.51   0
   3  -3  -1  591.16   55.76   0
   3   2   2 3819.42  111.42   0
   3   6   3  102.56   22.58   0
   6   6   3  947.88   46.07   0
   8  10   2  352.20   39.76   0
  -3   4  -3   91.38   39.66   0
  -1   9  -2   49.37   31.45   0
  -1  10  -4  396.88   44.86   0
   0   7   1   50.04   19.79   0
   0   9   0  256.79   28.75   0
   0  10  -1   34.79   28.14   0
   1   5   2 3723.45   74.62   0
   1   6   2 2849.74   61.22   0
   2   9   2  119.46   22.54   0
   3   7   3  787.46   33.49   0
   4   5   3 2659.28   62.88   0
   5   9   3   15.69   21.89   0
   8   6   2  523.94   46.75   0
  -3  -2  -4 2054.80   73.51   0
  -1   8  -1   47.04   26.51   0
   3  10   2  255.01   26.67   0
   4   2   2   64.18   36.30   0
   4   8   3  306.60   25.23   0
   4  12   1  626.76   35.67   0
   6   7   3   68.45   28.10   0
   6  11   2  385.80   30.51   0
   7   4   2  240.66   42.89   0
   8   9   2   96.26   33.78   0
   0   3   1 1967.36   72.25   0
   1   9   1  433.11   28.32   0
   1  11  -1   53.12   28.23   0
   2  12  -1  219.13   31.78   0
   3  12   0  332.92   30.42   0
   4  -3  -1  827.92   69.98   0
   4   6   3 2808.87   58.61   0
   5   8   3  925.33   35.79   0
   5  11   2  172.54   27.35   0
   6   3   2 1086.37   60.36   0
   8   7   2  777.73   49.35   0
   8   8   2  153.34   36.62   0
   9   9   1  138.15   42.69   0
  -2   8  -4  356.23   42.21   0
   0   6   1  495.94   30.58   0
   0  11  -4   85.36   37.75   0
   3  11   1  359.98   27.93   0
   4   7   3  498.62   28.80   0
   5  12   1  180.84   32.06   0
   7  10   2   71.25   31.09   0
   2   3   2 3562.91   89.19   0
   2   8   2  661.75   30.95   0
   2  10   1    7.20   21.62   0
   2  11   0  236.78   28.36   0
   9   7   1  344.82   46.99   0
   9   8   1   23.10   41.84   0
  -2   6  -2 1925.85   58.89   0
  -1   3   0 2495.26   84.29   0
   0   4   1  177.97   27.64   0
   0   5   1 4378.12   81.97   0
   0  10  -2  562.67   36.40   0
   2  12  -2  333.11   38.05   0
   4  10   2  924.66   35.18   0
   6  10   2  696.39   37.83   0
   7   2   1   91.99   47.95   0
  -1   4   0  913.67   49.23   0
  -1   9  -3  679.08   41.81   0
   1  11  -2  786.04   39.60   0
   4  12   0  184.87   30.82   0
   5  10   2   51.01   24.47   0
   7   5   2 1128.17   52.75   0
   7   9   2  507.41   36.65   0
   8  10   1   11.42   36.56   0
  -3   6  -5  390.47   45.34   0
  -2   7  -3  712.62   42.82   0
   0   9  -1  435.46   33.03   0
   1   8   1  750.76   31.76   0
   3  12  -1  187.40   32.42   0
   4  11   1  357.66   31.18   0
  -3   5  -4  522.15   45.16   0
  -2   8  -5  202.18   40.54   0
  -1   7  -1 1197.40   43.19   0
   0  -2  -1 2863.79   97.94   0
   2   7   2 2417.33   50.86   0
   5  11   1  177.91   27.94   0
   5  12   0  365.66   37.02   0
   6  11   1  352.39   30.90   0
   7   6   2  423.54   39.93   0
   7   8   2  608.81   39.42   0
  -1   8  -2  884.37   39.92   0
   3  10   1  373.27   27.57   0
   3  11   0  466.78   28.55   0
   4   9   2   42.90   22.60   0
   7   7   2   35.02   30.26   0
   8   9   1  209.70   38.20   0
   1   9   0  762.57   33.32   0
   1  11  -3   49.82   31.75   0
   2   4   2 3951.61   79.75   0
   2   6   2  882.65   35.04   0
   2   9   1  931.79   34.53   0
   3   8   2 1257.91   37.15   0
   4  12  -1  248.02   32.95   0
   5   3   2  234.65   35.98   0
   5   9   2  976.43   34.72   0
   6   4   2 1378.88   56.10   0
   9   9   0  104.64   41.18   0
  -1   9  -4   25.58   32.02   0
   2   5   2  908.73   38.15   0
   2  10   0  783.46   32.00   0
   0   7   0 2073.78   48.83   0
   1   7   1 3689.53   61.36   0
   3   3   2 4506.81   95.06   0
   4  10   1   40.49   25.40   0
   4  11   0   53.16   26.78   0
   8  10   0  320.93   41.76   0
   9   8   0  226.35   41.38   0
   0  10  -4   93.34   29.71   0
   3   7   2    9.79   18.01   0
   5   8   2  809.04   34.07   0
   5  10   1  978.13   37.62   0
   6  10   1   22.02   23.33   0
   8   7   1  123.63   36.04   0
   6   7   2 1135.88   41.14   0
   1   5   1  557.06   30.00   0
   1   6   1 1319.34   39.70   0
   2   3   0 2285.88   57.86   0
   2   8   0   67.29   18.07   0
   3   8  -1   84.74   21.56   0
  -1   8   1  233.66   26.67   0
   1   9   0  813.44   34.22   0
   1  11  -2  739.80   36.41   0
   2  11  -3  378.86   33.12   0
   4   7  -2  144.66   21.35   0
   5   7  -4  685.95   32.24   0
   6   2  -7  351.95   33.46   0
   3   3  -1 3711.36   66.13   0
   3  10  -3  200.27   27.39   0
   4   4  -2   90.19   18.55   0
   4   6  -2 2616.56   47.82   0
   6   5  -7  263.61   32.50   0
  -1  11  -2  420.34   39.70   0
   0  11  -2    4.15   24.78   0
   1  10  -1  913.74   34.79   0
   2   7   0 1391.79   37.59   0
   3   7  -1 1094.27   33.51   0
   3   9  -2   55.07   20.45   0
   4   5  -2 1688.98   40.96   0
   4   8  -3  248.19   26.03   0
   5   1  -5 1319.59   45.12   0
   5   6  -4  353.49   27.79   0
   6   0  -9  163.51   39.34   0
   6   1  -8  700.19   42.93   0
   6   3  -7  537.40   36.53   0
   6   4  -7   86.63   30.17   0
   5   4  -4 1205.18   36.65   0
   5   5  -4   44.35   21.28   0
   5   7  -5  117.49   25.51   0
   5   8  -6   10.94   27.77   0
  -2   9   0  495.43   38.77   0
  -2  10  -1   67.17   33.42   0
   0   3   1 1956.07   73.86   0
   0   9   0  256.49   28.04   0
   1  11  -3   60.12   27.87   0
   2   4   0 5270.39   79.14   0
   2   6   0 1246.95   36.49   0
   3   6  -1 3375.67   55.08   0
   6   2  -8   41.55   31.00   0
   6   5  -8  149.06   33.63   0
   0  10  -1   38.85   24.51   0
   2   5   0    6.61   16.09   0
   3   4  -1  714.13   30.23   0
   3   5  -1  410.34   24.34   0
   5   0  -6  733.08   40.02   0
   6   3  -8  221.31   33.98   0
  -1   9   0  565.66   36.12   0
  -1  10  -1  642.90   39.82   0
   3   1  -2 6724.04  102.82   0
   3   8  -2 1430.36   38.34   0
   4   0  -4  169.00   27.75   0
   4   2  -3  388.11   26.64   0
   4   7  -3  666.81   31.39   0
   5   6  -5  268.28   26.03   0
   5   7  -6  555.50   32.62   0
  -2   7   1   28.37   26.39   0
  -1   7   1  641.97   34.55   0
  -1  11  -3   16.00   36.37   0
   1  10  -2  406.56   29.53   0
   1  11  -4  307.90   33.39   0
   3   9  -3 1246.38   36.80   0
   3  10  -5    9.66   31.40   0
   5  -2  -8  292.85   38.12   0
   5  -1  -7   32.89   31.72   0
   6   2  -9  658.66   42.35   0
   6   4  -9   25.15   33.37   0
   2   1  -1 5601.98  108.64   0
   4   6  -3  367.03   25.84   0
   5   5  -5 1032.96   36.10   0
   5   7  -7  338.12   34.97   0
   6   1 -10  165.50   40.29   0
   6   3  -9  210.28   34.40   0
   0   4   1  213.69   28.08   0
   0   5   1 4649.49   84.88   0
   1  -6  -5  722.89   50.59   0
   5   4  -5  458.69   28.59   0
   6   2 -10    8.38   32.65   0
   6   3 -10  307.67   39.70   0
  -4   1   1 1495.19   59.44   0
   0  11  -4   86.62   31.82   0
   1  -5  -4  571.52   47.18   0
   3   7  -2 1329.10   35.88   0
   3   9  -4   79.32   22.06   0
   4   5  -3  790.41   30.65   0
   4   8  -5   37.37   26.83   0
   6   2 -11  240.21   41.84   0
  -5   3   1 1464.87   82.38   0
  -3   8   0  667.91   46.56   0
   0   8   0  266.89   26.09   0
   0  10  -2  560.07   33.20   0
   1   7   0  121.18   18.94   0
   3  -2  -4  699.90   54.35   0
   4   7  -4   10.25   23.45   0
   5   1  -6  313.76   30.95   0
  -3   6   1  244.05   38.92   0
  -2  10  -2  399.86   37.78   0
  -1  -1   0 4049.46  108.50   0
   1  10  -3  194.15   27.85   0
   2   7  -1 1263.12   35.60   0
   3   8  -3  227.01   24.44   0
   4  -1  -5  339.30   34.73   0
   5   5  -6   76.34   22.88   0
   5   6  -7   -5.24   23.69   0
  -1   6   1 1199.27   47.03   0
  -1  10  -2  165.82   31.48   0
   0   9  -1  440.69   30.54   0
   3   9  -5  301.95   26.68   0
   5   2  -6  340.22   31.33   0
   5   6  -8  489.07   41.16   0
  -5   2   1  133.36   36.74   0
   1   2   0 5677.57  113.89   0
   2   9  -3   12.13   22.02   0
   3   2  -2 2637.14   58.68   0
   3   6  -2   69.14   17.51   0
   4   6  -4  475.08   29.10   0
   4   7  -5  743.37   35.56   0
  -2   8   0  186.52   30.67   0
  -1   8   0 1946.77   51.94   0
   1   6   0 1146.77   36.26   0
   1  10  -4  490.27   33.24   0
   2   8  -2  243.73   23.04   0
   3   9  -6  296.37   32.71   0
   4  -4  -8    4.68   41.47   0
   5   5  -7  375.63   31.45   0
  -2   9  -1  234.70   32.60   0
  -1  -3  -1 1282.31   48.15   0
   0  10  -3  584.12   32.84   0
   2   6  -1  166.99   19.62   0
   3   5  -2 1701.36   40.61   0
   3   7  -3  100.82   22.11   0
   3   8  -4  449.68   29.22   0
   4  -2  -6 2421.40   74.31   0
   5  -2  -9  410.63   42.48   0
   5  -1  -8  903.59   46.55   0
   2   9  -4  750.32   33.66   0
   3   3  -2  991.14   35.80   0
   3   4  -2 4592.35   66.73   0
   4   5  -4 1384.98   38.17   0
   4   7  -6  193.25   28.96   0
   5   1  -7  800.44   40.24   0
  -1  10  -3  188.17   29.12   0
   1   5   0 3934.44   67.76   0
   1  10  -5   -0.61   26.25   0
   2   2  -1 3934.63   78.94   0
   4  -3  -7  895.03   56.60   0
   4   2  -4  782.35   33.42   0
   4   6  -5  537.60   29.91   0
   0  10  -4   84.73   27.44   0
   3   8  -5  779.86   33.97   0
   4   3  -4  373.94   24.45   0
   4   4  -4  113.48   19.58   0
   4   7  -8  321.30   35.73   0
   4   7  -7  172.20   30.38   0
   5   2  -7  627.26   37.15   0
   0   9  -2  378.10   28.45   0
   1   3   0   41.89   17.11   0
   1   4   0 3704.54   71.16   0
   2   7  -2  542.30   26.28   0
   2   8  -3 1132.46   34.61   0
   2   9  -5  146.47   26.84   0
   3  -3  -5  438.68   53.01   0
   5   0  -8  205.67   33.33   0
  -1  10  -4  428.28   32.87   0
   0   8  -1 1853.90   45.22   0
   0  10  -5  489.68   34.92   0
   1   7  -1 1603.57   40.34   0
   2   4  -1 3849.19   65.14   0
   2   9  -6  198.80   32.52   0
   3   7  -4  882.58   33.11   0
   3   8  -6   -3.66   24.61   0
   4   0  -5 2291.10   58.88   0
   4   6  -6  209.35   26.91   0
   5  -2 -10  808.85   48.41   0
   5   3  -8  294.14   32.49   0
   5   4 -10  111.22   37.18   0
   3  -5  -7 1214.33  101.95   0
   4   5  -5   21.60   22.22   0
   5  -1  -9   55.07   34.10   0
   5   1  -8  100.35   28.48   0
   5   2  -8  745.72   38.20   0
  -2   9  -2  873.61   42.51   0
  -1   7   0  201.71   27.08   0
  -1   9  -2   56.27   25.16   0
  -1  10  -5    7.57   31.62   0
   4   6  -7  764.08   35.93   0
   5   3  -9  206.83   32.72   0
   3   5  -3 1541.80   38.94   0
   4   4  -5 1142.10   36.60   0
   4   6  -8   32.78   28.16   0
   5   0  -9  918.13   45.18   0
   5   3 -11  506.91   41.24   0
   5   3 -10  103.99   33.39   0
  -3   7   0    4.48   28.27   0
  -2   5   1 2309.93   76.18   0
  -1   8  -1   29.69   24.17   0
   0   9  -3   -3.96   22.35   0
   2   6  -2 1607.33   40.30   0
   3  -4  -6 1445.81   92.18   0
   3   7  -5   68.04   22.94   0
   4   5  -6  994.20   35.70   0
   4   6  -9  202.42   33.63   0
   5  -2 -11   13.93   37.29   0
   5  -1 -10  788.68   46.70   0
   5   1  -9  520.33   35.34   0
   5   2  -9   -2.88   29.08   0
  -3   5   1  833.98   62.00   0
  -3   8  -1    9.48   30.11   0
  -2   7   0 1779.50   55.31   0
   3   1  -3  375.42   29.22   0
   3   6  -4  567.10   29.30   0
   4   3  -5 1685.32   43.04   0
   5   2 -11   22.07   33.78   0
  -2   8  -1 1344.40   47.28   0
   1   6  -1  976.32   33.50   0
   2   8  -5  195.04   24.26   0
   3   4  -3   72.18   18.03   0
   3   7  -6  457.22   33.14   0
   4  -1  -6 1290.35   49.14   0
   5  -1 -11  241.06   41.62   0
   5   0 -10   24.66   34.15   0
   5   1 -10  291.51   35.72   0
  -1   9  -3  711.66   33.46   0
   0   8  -2   56.85   23.11   0
   4   5  -7  135.88   24.42   0
   5  -1 -12  172.42   40.32   0
   5   0 -13  169.53   43.00   0
   5   0 -12  101.13   39.74   0
   5   0 -11  527.95   41.28   0
   5   1 -11  157.51   34.11   0
  -2   9  -3   -1.99   29.64   0
   1   7  -2 1513.30   38.46   0
   2   8  -6  574.35   30.44   0
   3   7  -8   30.93   31.77   0
   4   4  -6  591.08   30.11   0
   4   5  -8  357.18   28.81   0
   0   9  -5  179.08   29.42   0
   2   5  -2  124.84   18.40   0
   2   8  -7   28.23   26.31   0
   3   6  -5  483.95   30.14   0
   4  -2  -7   36.47   30.02   0
  -1   9  -4   25.37   27.10   0
   0   5   0   41.87   19.03   0
   2   7  -4   18.75   21.35   0
   3   5  -4  179.15   21.94   0
   4  -4  -9 1037.79   59.57   0
   4   0  -6  127.14   26.57   0
   4   3  -6   10.15   20.78   0
   0   9  -6  121.66   29.02   0
   2   6  -3   45.50   20.43   0
   4  -3  -8 1215.60   56.43   0
   4   4  -7   87.26   23.05   0
  -2   9  -4  704.29   40.46   0
  -1   6   0  544.24   32.51   0
  -1   8  -2  849.00   35.02   0
   1   5  -1  101.43   17.33   0
   3   6  -6  915.67   37.26   0
   4   4  -8  526.04   31.54   0
  -1   9  -5  554.22   34.24   0
   0   8  -3  425.20   28.99   0
   2   4  -2   17.73   15.77   0
   2   7  -5  814.44   32.88   0
   3   6  -7   27.12   26.30   0
   4   4  -9   23.61   27.53   0
  -2   9  -5  106.70   32.77   0
  -1   9  -6  214.76   33.21   0
   3   4  -4 1712.02   41.18   0
   3   5  -5 1153.35   36.57   0
   3   6  -9  143.60   33.45   0
   3   6  -8  459.93   33.58   0
   4   3  -7 1076.69   36.68   0
  -3   8  -2  628.27   39.28   0
  -2   8  -2  211.66   30.35   0
  -2   9  -6  368.42   41.00   0
  -1  -2   0 5986.51  105.71   0
  -1   7  -1 1266.93   40.39   0
   1   7  -3    1.96   17.19   0
   2   7  -6  350.56   28.82   0
   4  -1  -7 1080.70   45.70   0
   1   6  -2    5.93   15.92   0
   4   3 -11    8.08   33.17   0
  -4   6   0  727.23   54.39   0
  -4   7  -1  125.85   35.79   0
  -2   4   1   36.41   30.54   0
   0   4   0 3654.84   75.59   0
   0   8  -4  296.37   26.19   0
   2   1  -2   74.59   19.08   0
   2   6  -4  951.04   32.80   0
   3   3  -4  645.22   28.88   0
   3   5  -6  152.41   24.83   0
  -2   6   0 1439.38   52.68   0
  -1   8  -3  193.56   24.75   0
   1   4  -1  382.24   25.74   0
   2   2  -2 4766.78   80.57   0
   4  -2  -8 1034.34   49.14   0
   4   0  -7 1142.15   42.15   0
   4   1  -7   12.89   22.22   0
  -2   7  -1  536.43   32.62   0
   0   8  -5  129.24   26.17   0
   1   7  -4 1237.44   35.81   0
   3   1  -4 1821.95   49.52   0
   3   2  -4   28.62   16.17   0
   3   4  -5  651.78   29.30   0
   4  -3  -9  105.62   34.86   0
   4   2 -12  147.75   35.91   0
  -3   6   0  921.93   49.33   0
  -3   7  -1  968.03   45.46   0
  -2   8  -3  429.26   33.46   0
   0   8  -7   41.50   30.04   0
   0   8  -6  898.51   37.20   0
   2   6  -5  630.77   31.15   0
   3   5  -9  151.96   28.92   0
   3   5  -8  217.73   27.82   0
  -3   8  -3  123.87   33.61   0
  -2  -1   1 5863.41   99.20   0
   1   7  -5   13.92   21.36   0
   4   1  -8 1215.18   44.22   0
   4   2 -10   29.21   28.18   0
   1   6  -3 1789.40   41.67   0
   2   6  -6   92.56   24.31   0
   3   4  -6  447.95   28.76   0
   4  -1  -8   24.50   24.79   0
   4   0  -8  481.53   33.49   0
   4   1 -12   46.80   33.82   0
  -1   7  -2  848.65   33.59   0
  -1   8  -5  577.13   33.68   0
   0   3   0 4100.88   91.23   0
   1   3  -1 3954.22   74.97   0
   1   7  -8  177.79   28.19   0
   1   7  -7  689.14   33.92   0
   2   4  -3 2319.75   47.96   0
   2   5  -4 1062.15   34.06   0
   2   6  -8   31.58   27.71   0
   2   6  -7  823.24   36.60   0
   3   3  -5  212.90   22.55   0
   4  -4 -11  159.57   40.01   0
   4  -1 -14  324.93   47.78   0
   4   0 -13  126.40   38.53   0
   4   1  -9  338.23   33.29   0
  -2   8  -4  343.50   32.18   0
  -1   8  -7  378.97   36.43   0
  -1   8  -6   41.60   28.83   0
   3   4  -7 1225.91   39.19   0
   4  -3 -10  759.78   48.57   0
   4  -2  -9  976.23   48.17   0
   4   1 -10  533.21   35.15   0
  -3   8  -4  223.34   36.44   0
   3   4 -10  127.77   26.98   0
   3   4  -9  950.89   37.14   0
   3   4  -8   11.08   23.71   0
   4  -2 -14  178.19   45.56   0
   4  -1  -9  800.07   42.05   0
   4   0  -9   86.71   28.27   0
  -2   8  -5  206.29   30.10   0
  -1   6  -1 2108.48   51.25   0
   0   5  -1 2999.55   58.61   0
   0   6  -2 2202.93   46.49   0
   1   2  -1 4030.06   86.15   0
   3   2  -5 1119.00   36.58   0
   4   0 -11   11.86   32.23   0
  -2   8  -7   -4.67   32.44   0
  -2   8  -6  487.33   36.06   0
   1   6  -4  312.36   23.42   0
   2   5  -5   60.78   19.69   0
   3   3  -6 1398.06   39.18   0
   4  -2 -13  359.37   44.54   0
   4  -1 -12  343.17   38.09   0
   1   1  -1 1308.19   61.06   0
   2   3  -3 1170.24   37.40   0
   2   5 -10   15.37   32.09   0
 -10  -1   0    2.98   29.40   0
  -7   0  -3  813.66   31.10   0
  -7   4  -3   94.87   24.05   0
  -6  -4   0  978.80   43.71   0
  -2   3  -3  207.13   22.87   0
 -10  -2   1   46.63   34.38   0
  -6   5  -3  359.82   25.65   0
  -4  -4   1 1598.65   75.69   0
  -4  -2  -2   48.60   18.33   0
  -4   6  -3   11.11   24.29   0
   0  10   0  871.57   61.71   0
  -9  -3   1  449.27   38.86   0
  -9  -1  -1  247.06   30.08   0
  -7  -3  -1 1429.48   42.06   0
  -7   1  -3   16.20   21.11   0
  -7   3  -3  658.19   30.57   0
  -5   8  -2  810.33   38.68   0
  -4  10  -1   -4.76   34.31   0
  -3  10  -1  608.50   47.20   0
  -1   9  -1  634.63   50.02   0
  -6   0  -3  977.02   32.95   0
  -5   5  -3  336.41   25.93   0
  -4   0  -3  637.07   27.44   0
  -4   8  -2   -2.26   29.57   0
  -3   1  -3   77.12   18.10   0
  -3   8  -2  612.64   37.46   0
   1   0   2  479.83   31.66   0
  -9  -2   0  321.49   31.21   0
  -8  -4   2   13.96   30.84   0
  -8  -3   0  694.62   36.76   0
  -8  -2  -1  460.47   31.01   0
  -8   0  -2 1122.46   36.05   0
  -6   4  -3  750.13   31.23   0
  -5  -2  -2 1750.86   43.78   0
  -5   0  -3 1299.00   34.77   0
  -1   6  -2    0.67   24.75   0
   1   8   0 1200.89   72.63   0
   2   2   2  944.28   42.35   0
 -10  -2   2  312.72   38.91   0
 -10  -1   1  354.43   35.16   0
  -9   0  -1  581.68   33.06   0
  -8   1  -2   81.17   21.06   0
  -8   3  -2  349.95   29.86   0
  -7  -4   1  125.94   29.89   0
  -6  -3  -1  320.15   27.38   0
  -6   3  -3  173.73   23.65   0
  -4  11   0   81.98   41.50   0
  -3   4  -3  100.79   20.50   0
  -8   2  -2  185.45   24.16   0
  -7  -1  -2  610.64   27.79   0
  -6   2  -3  339.22   25.80   0
  -5   4  -3   58.02   20.63   0
  -5   9  -1  243.45   34.27   0
  -3  -1  -2  767.16   34.34   0
  -3   2  -3 2400.51   48.64   0
  -3   3  -3 2357.66   48.19   0
  -3  11   0  174.98   46.43   0
  -2   0  -2  627.46   34.10   0
  -2   7  -2  789.82   39.03   0
   3   7   2    6.24   43.66   0
  -9  -3   2  167.48   35.91   0
  -9   2  -1   64.92   25.99   0
  -7   5  -2  331.90   28.10   0
  -5   1  -3   16.52   16.88   0
  -5   7  -2  411.37   31.17   0
  -4   1  -3 2655.46   47.74   0
   0   7  -1  512.80   44.19   0
  -9  -1   0  398.58   32.43   0
  -6   6  -2  563.35   31.32   0
  -5   2  -3  715.95   27.72   0
  -5   3  -3 1426.60   37.40   0
  -4   3  -3  165.56   20.31   0
  -2   9  -1  237.24   38.35   0
  -1  -3   3 1230.54   55.11   0
   3   6   2  888.48   60.54   0
  -8  -1  -1  489.28   29.40   0
  -7   0  -2   58.94   19.83   0
  -7   4  -2  365.34   27.42   0
  -6   8  -1  507.34   35.36   0
  -4   7  -2  357.28   30.26   0
  -4   9  -1  275.05   33.26   0
  -3   7  -2  571.17   35.05   0
  -1   3  -2   43.20   21.96   0
 -10  -1   2   42.96   34.29   0
  -9  -2   1  372.93   32.43   0
  -7  -3   0   18.39   24.18   0
  -7  -2  -1   64.33   23.51   0
  -6  -1  -2  846.38   30.64   0
  -5  -4   1  347.93   38.51   0
  -3   9  -1  476.05   36.74   0
  -9   0   0   82.63   28.62   0
  -8  -3   1   69.42   29.83   0
  -8  -2   0  163.39   25.91   0
  -7   1  -2  705.26   29.96   0
  -7   2  -2  492.15   27.23   0
  -7   3  -2    3.32   22.76   0
  -6   5  -2   66.25   20.60   0
  -3  -2  -1   18.56   19.79   0
  -2  -4   4   47.39   33.08   0
  -1   8  -1   48.50   31.56   0
   0   2  -1 2242.67   91.72   0
   1  10   1 1614.65   83.49   0
  -8   4  -1  139.48   27.91   0
  -7   6  -1  366.63   28.29   0
  -5  -1  -2  719.24   29.17   0
  -5   8  -1    2.14   28.24   0
  -1  10   0    3.96   36.50   0
  -8   1  -1  513.21   27.90   0
  -8   3  -1   25.85   22.84   0
  -4  10   0  407.47   35.40   0
   3   5   2 3405.78   89.16   0
  -8   2  -1  456.60   26.03   0
  -6   0  -2  770.35   29.34   0
  -2   1  -2   39.44   16.88   0
  -1   0  -1 3968.78  108.91   0
   0   6  -1  530.43   42.41   0
   0   9   0  279.13   41.06   0
 -10  -1   3  190.40   37.19   0
  -9  -2   2   42.01   30.76   0
  -9  -1   1   -2.69   27.49   0
  -6   3  -2 1131.07   33.56   0
  -5   5  -2  555.39   27.70   0
  -4   8  -1  710.73   36.13   0
  -3   0  -2  950.09   35.17   0
  -3  10   0   15.28   30.94   0
  -2  10   0  702.11   45.93   0
  -8  -1   0  118.65   25.86   0
  -7   5  -1   -3.61   21.53   0
  -6   1  -2   53.84   20.09   0
  -6   2  -2  243.26   23.63   0
  -2   8  -1 1365.90   47.24   0
  -8  -3   2  475.78   37.04   0
  -5   0  -2  223.65   20.60   0
  -5   9   0  577.73   36.79   0
  -4  -2  -1 1812.36   50.52   0
  -4   5  -2  396.27   26.44   0
  -4  11   1   48.78   35.44   0
  -3   8  -1   11.08   26.08   0
   1   7   0  137.01   41.42   0
  -9   0   1  242.52   30.60   0
  -7  -2   0  813.05   34.20   0
  -7   0  -1  846.76   31.05   0
  -7   4  -1  521.51   29.71   0
  -6   6  -1  176.02   22.01   0
  -5  -3   0    5.61   21.90   0
  -5   4  -2  967.28   32.49   0
  -4   0  -2 4312.98   62.40   0
  -2   2  -2 1335.91   42.66   0
  -2   4  -2  306.72   24.43   0
  -1  11   1  397.93   45.37   0
  -8  -2   1  378.33   28.94   0
  -7  -4   3   32.16   29.89   0
  -6  -4   2   44.58   28.71   0
  -5   3  -2    5.50   18.18   0
  -3  11   1  183.68   39.20   0
  -2   3  -2 2257.25   52.43   0
  -9   1   1  404.26   30.60   0
  -7   1  -1  552.77   27.15   0
  -7   2  -1   47.76   20.23   0
  -6  -1  -1  950.12   32.50   0
  -5   2  -2 1015.52   31.20   0
  -5  10   1  328.69   35.44   0
  -4   4  -2  158.71   19.87   0
  -2  11   1  195.32   41.55   0
   0   3  -1  215.90   33.29   0
  -9  -2   3  544.94   38.82   0
  -9  -1   2  560.93   33.51   0
  -8   1   0  283.54   25.22   0
  -6   5  -1  776.31   29.90   0
  -4   1  -2  223.19   19.62   0
  -4   9   0  189.34   31.05   0
  -3   4  -2 1874.82   42.68   0
   3   4   2  426.94   34.95   0
  -8   2   0    9.90   19.18   0
  -5   6  -1  403.04   26.04   0
  -4   2  -2  767.82   29.05   0
  -4   3  -2 1908.01   41.47   0
  -3   2  -2 1448.93   39.41   0
  -3   3  -2  372.00   23.74   0
  -1   9   0  611.20   43.23   0
  -8  -3   3  404.05   36.36   0
  -6   7   0  557.57   31.59   0
  -5   8   0  488.87   31.97   0
  -3   9   0  572.45   37.28   0
  -2   7  -1  552.67   34.33   0
  -9   0   2  331.65   30.83   0
  -8  -1   1  764.04   33.61   0
  -7   5   0  553.29   28.31   0
  -6   0  -1   13.95   16.35   0
  -6   4  -1  430.29   26.61   0
  -5  -4   2  826.66   49.79   0
  -4  -4   2   99.07   38.19   0
  -2   9   0  509.67   38.02   0
  -9  -2   4   25.84   33.35   0
  -8  -2   2  540.01   35.29   0
  -6  -3   1   51.05   25.10   0
  -6  -2   0  358.29   26.41   0
  -5  -1  -1  343.91   22.85   0
  -4  10   1   45.10   29.61   0
   0   8   0  283.75   40.86   0
   0  10   1   18.33   39.96   0
  -9   1   2   -4.68   27.48   0
  -7  -3   2  293.48   32.41   0
  -6   1  -1  845.76   29.82   0
  -6   3  -1  101.53   22.25   0
  -5   5  -1   12.42   18.99   0
  -8   0   1   89.47   24.95   0
  -8   4   1   10.56   23.79   0
  -7  -2   1  383.16   29.30   0
  -7   4   0   25.83   23.32   0
  -6   2  -1  988.12   31.57   0
  -5   9   1   24.90   28.14   0
  -4  -1  -1 1747.28   45.18   0
   1   9   1  429.75   52.28   0
  -8  -3   4   86.47   32.67   0
  -6   6   0  223.96   22.23   0
  -4   8   0  113.87   24.94   0
  -4  11   2  343.98   34.83   0
  -3  10   1  461.43   36.04   0
   1  -1   2 5570.28   90.44   0
   1   6   0 1172.80   71.35   0
  -8   2   1  532.29   27.42   0
  -8   3   1  418.90   25.29   0
  -7   1   0  419.06   25.03   0
  -7   2   0  688.95   30.27   0
  -7   3   0   54.27   20.57   0
  -5   0  -1 1937.36   42.25   0
  -5   4  -1  438.16   25.93   0
  -9   0   3   55.13   27.90   0
  -7   6   1  141.30   24.84   0
  -4   5  -1 1543.85   38.76   0
  -2  10   1  107.48   35.12   0
  -1   1  -1  156.45   25.67   0
  -1  10   1  574.32   43.92   0
   1   0   1 4169.03   99.11   0
  -9  -1   4  182.68   34.02   0
  -8  -1   2   27.08   23.69   0
  -6   5   0  105.98   21.96   0
  -5   3  -1 1291.77   34.25   0
  -5  10   2  205.99   29.46   0
  -3   8   0  665.76   34.43   0
   4   8   3  322.48   55.41   0
  -9   1   3  319.82   32.21   0
  -8  -2   3    6.42   30.00   0
  -8   5   2  292.35   29.04   0
  -5  -3   1 3199.03   69.76   0
  -5   1  -1  398.55   23.51   0
  -5   2  -1  346.84   22.54   0
  -3  11   2  110.41   30.62   0
  -2   0  -1  562.26   32.71   0
  -2   8   0  167.27   29.37   0
   2   2   1 5242.20  110.07   0
  -9   2   3  173.32   29.18   0
  -7  -1   1   15.73   21.48   0
  -7   5   1  239.56   25.91   0
  -6   7   1   19.61   19.32   0
  -4   0  -1  251.64   21.93   0
  -4   9   1  577.30   32.43   0
  -3   5  -1  203.74   21.82   0
  -7  -3   3  371.98   35.36   0
  -7   7   2   59.69   26.17   0
  -6   4   0 1091.70   33.36   0
  -5   6   0  304.23   23.47   0
  -4   4  -1  857.33   29.99   0
   0  11   2  405.87   47.45   0
  -9   0   4  405.52   32.24   0
  -7  -2   2   89.22   25.48   0
  -6  -2   1 1013.61   37.70   0
  -6   0   0 1308.05   35.11   0
  -3  -2   0 3965.08   89.53   0
  -3  12   3   80.71   38.79   0
  -2  11   2  445.85   39.48   0
  -1   4  -1 2448.25   61.59   0
   0   7   0 2261.29   67.83   0
  -9  -1   5  225.26   36.38   0
  -8   3   2   74.71   20.56   0
  -7   4   1  652.89   30.38   0
  -6  -3   2 1218.36   43.73   0
  -6   3   0 1253.73   34.90   0
  -4  -3   1   86.38   27.91   0
  -4   1  -1 2181.35   45.42   0
  -4   3  -1   41.57   17.36   0
  -4  10   2  526.92   35.03   0
  -1   2  -1   49.69   20.10   0
  -1  11   2   74.17   38.32   0
  -9   1   4   44.66   29.30   0
  -8  -1   3  534.88   33.62   0
  -7   3   1  286.54   25.26   0
  -6   1   0 1256.66   34.14   0
  -6   2   0   47.78   20.25   0
  -6   8   2  193.16   27.80   0
  -4   2  -1  999.96   31.58   0
  -3   4  -1 1090.83   34.69   0
  -3   9   1   45.09   25.65   0
  -1   3  -1 8853.44  117.55   0
  -9   2   4   66.14   29.04   0
  -8  -2   4  344.63   35.75   0
  -7   1   1  816.74   29.69   0
  -7   2   1    6.10   18.39   0
  -7   6   2  446.75   30.73   0
  -5  -4   3   12.91   30.20   0
  -5  -1   0 1023.00   33.87   0
  -5   5   0 1834.40   39.58   0
  -5   9   2  439.67   30.22   0
  -2   4  -1 3603.85   62.60   0
  -2  12   3  287.05   40.28   0
  -1  -1   0 3136.47  159.79   0
   0   9   1 1217.67   56.32   0
   1   5   0 3944.84  130.36   0
  -8   5   3   48.78   24.94   0
  -5   7   1  529.19   26.90   0
  -4   6   0  749.19   30.02   0
  -4  11   3   17.42   29.22   0
  -3   1  -1   33.62   16.41   0
  -3   3  -1 1379.17   38.08   0
  -2   1  -1 3546.23   69.91   0
  -9   0   5   33.90   29.10   0
  -5  10   3  166.05   29.79   0
  -3   2  -1 1591.63   41.73   0
  -2   7   0 1775.68   46.60   0
  -2   9   1  925.29   40.30   0
  -1   7   0  201.49   28.82   0
  -1  12   3   98.63   39.71   0
  -8   0   3  823.12   35.17   0
  -7  -3   4  520.87   38.97   0
  -7   5   2  284.61   26.45   0
  -6   5   1  608.85   28.78   0
  -5   4   0  440.70   25.22   0
  -3  10   2  240.92   30.17   0
  -2   2  -1 4440.20   74.29   0
  -2   3  -1  128.30   19.42   0
  -1   9   1  133.00   32.97   0
  -9   1   5  108.44   30.58   0
  -8   4   3  153.40   22.81   0
  -7   7   3  260.97   27.16   0
  -6   7   2  405.98   25.45   0
  -5   0   0    2.89   14.91   0
  -9   2   5  317.96   34.21   0
  -8  -2   5   92.76   34.06   0
  -8  -1   4  381.45   34.77   0
  -8   1   3   14.42   23.55   0
  -8   3   3  585.65   31.15   0
  -7  -2   3  585.80   35.23   0
  -5   3   0  544.97   25.68   0
   1  10   2   87.99   44.70   0
  -9   0   6  171.49   35.75   0
  -7   4   2   -1.32   22.16   0
  -6   4   1  138.65   24.09   0
  -5   1   0 1374.01   36.32   0
  -5   2   0 1667.61   38.40   0
  -4  -1   0  539.85   29.98   0
  -4   5   0   11.37   17.19   0
  -4   9   2   19.93   25.08   0
  -6   8   3   47.14   23.11   0
  -5  -3   2  343.36   33.97   0
  -5   6   1  255.35   22.37   0
  -3   8   1  520.16   30.49   0
  -2  10   2  394.01   34.90   0
  -8   5   4  412.13   30.18   0
  -7   3   2  593.75   28.15   0
  -7   6   3    6.17   23.73   0
  -6  -3   3  581.31   38.75   0
  -6  -2   2 1678.14   45.74   0
  -6   3   1  582.75   28.44   0
  -6   6   2   15.66   21.55   0
  -3  12   4  279.81   35.04   0
  -9   1   6  284.77   34.83   0
  -8   0   4    3.24   26.20   0
  -7   2   2  606.66   27.33   0
  -6   1   1  103.38   18.37   0
  -6   2   1 1880.81   40.75   0
  -4   4   0 1144.25   33.71   0
  -4  10   3  430.56   32.78   0
  -3  13   5   33.55   35.78   0
   2   1   1 1732.91   57.69   0
  -8   4   4  286.96   26.62   0
  -1  10   2  274.83   37.55   0
  -8   1   4  482.53   32.90   0
  -7  -1   3  206.93   26.74   0
  -7   5   3  378.17   28.14   0
  -7   7   4  362.20   30.95   0
  -5   5   1  224.58   23.52   0
  -5  10   4  335.32   32.61   0
  -4   0   0 4509.79   69.29   0
  -4  11   4  284.58   32.39   0
  -3  -1   0 4943.17   88.29   0
  -3   5   0 2284.97   46.34   0
  -2   8   1  529.17   31.77   0
  -6   5   2  371.03   27.14   0
  -5   7   2  187.52   21.72   0
  -4   3   0  788.49   29.31   0
  -3   3  -5  127.57   56.41   0
  -1  -1  -2 3459.07  104.47   0
   0   5   2  542.82   40.87   0
   3   9   5  224.69   25.76   0
   3  13   3  216.40   32.95   0
   5   8   6   31.51   25.13   0
   5   9   6  404.15   30.89   0
   5  10   6  836.38   35.72   0
   7   0   2   77.72   50.95   0
   7  12   6   88.57   29.78   0
  -2   4  -2  254.46   74.72   0
   2  13   1   59.18   38.36   0
   3   7   5  441.21   29.20   0
   3   8   5 1722.07   45.86   0
   4   5   5  136.78   23.19   0
   4  13   4   96.25   30.24   0
   4  14   3   11.74   32.01   0
   6   1   3   32.51   42.62   0
   6   8   6  568.41   32.84   0
   6  11   6  651.83   33.30   0
   7  11   6  101.62   29.67   0
   8  10   6   50.60   33.89   0
   0   9   1 1145.66   48.52   0
   2   9   4  342.22   26.92   0
   4  11   5    8.62   21.86   0
   6   9   6  288.21   28.94   0
   6  10   6    5.96   25.64   0
   7   9   6  408.52   30.40   0
   7  10   6  617.15   33.17   0
   0  10   0  782.20   47.44   0
   2  11   3  153.18   29.53   0
   5   1   3 1991.91   72.63   0
   5  12   5  243.20   26.21   0
   7   3   4  995.23   52.06   0
   7   5   5  529.42   40.34   0
   8   2   3  415.89   49.03   0
   9   7   5  445.91   39.58   0
  10   6   4  -24.05   47.88   0
   1   2   2 3367.11  102.34   0
   1  10   2  102.96   28.37   0
   2   7   4  999.16   38.65   0
   2  12   2   43.63   29.87   0
   4   3   4   31.55   27.88   0
   5   5   5 1652.62   48.24   0
  -1   8  -1   46.40   34.82   0
   1   6   3  400.54   30.85   0
   1   7   3 3416.57   65.63   0
   1  11   1  404.17   39.12   0
   4   6   5  768.52   36.20   0
   4  10   5  708.16   33.16   0
   9   3   3  137.78   46.94   0
   9   8   5  379.19   40.62   0
  -1   6   0  505.72   44.69   0
   0   2   1 2717.81  114.23   0
   3   4   4   94.48   25.27   0
   3  12   3   54.33   27.92   0
   3  13   2  271.99   32.24   0
   5  11   5  579.16   31.88   0
   6   3   4  323.37   38.13   0
   6  12   5  349.79   30.72   0
   8   4   4  573.33   45.62   0
   9   5   4  339.02   44.06   0
   9   9   5   44.23   37.48   0
  10   7   4  271.04   45.54   0
   4   7   5 1111.50   38.31   0
   4   8   5    3.53   21.88   0
   4   9   5  810.66   34.76   0
   4  13   3  448.29   34.96   0
   7   6   5   60.00   32.43   0
   2   3   3 1385.92   54.96   0
   2  10   3  279.34   29.87   0
   3  10   4 1178.40   37.98   0
   5   6   5   15.01   21.53   0
   0   8   1  840.45   42.65   0
   3   2   3 1350.31   59.36   0
   5  10   5  122.00   25.34   0
   6   0   2  734.92   61.05   0
   6  11   5   12.42   23.87   0
   7  11   5  569.90   35.95   0
   8   1   2  404.66   52.53   0
  -1   5   0 2470.28   85.31   0
   0  10  -1   37.02   36.63   0
   1   9   2 1123.31   42.37   0
   4  11   4  606.03   30.27   0
   5   7   5 1024.54   36.64   0
   5   9   5  315.59   29.29   0
   5  12   4  379.12   27.29   0
   9   6   4  394.52   40.59   0
  -2   6  -3   10.85   52.73   0
   3   5   4  308.16   29.05   0
   3   9   4 1224.60   37.68   0
   3  13   1  367.16   35.98   0
   5   8   5  953.40   36.25   0
   6   7   5  537.14   33.12   0
   7   2   3   88.13   39.98   0
   7  10   5  144.43   27.53   0
   0   9   0  269.81   35.58   0
   1  11   0  508.48   41.94   0
   4   4   4 1123.17   44.34   0
   4  13   2  374.60   35.37   0
   6   8   5  141.41   25.72   0
   6   9   5  724.03   34.18   0
   7   4   4  173.07   35.79   0
   7   8   5  682.43   33.64   0
   7   9   5  107.00   25.06   0
   8   5   4  316.49   37.12   0
   3   8   4  269.40   25.67   0
   9   7   4   25.21   36.18   0
  10   6   3  244.85   46.51   0
   3   7   4  560.59   31.20   0
   4  10   4  525.95   29.87   0
   5   0   2  232.32   46.83   0
   5  11   4   18.62   22.17   0
   8   3   3  271.62   43.50   0
   9   8   4   83.80   35.86   0
   9   9   4  270.78   39.07   0
  -1   7  -1 1207.58   60.33   0
   0   7   1   49.81   26.94   0
   2  12   0  117.60   36.01   0
   3  13   0   28.24   34.35   0
  -1   8  -2  864.33   56.41   0
   0  -3  -2  563.86   44.52   0
   2   4   3  435.73   31.58   0
   2   8   3 1008.44   36.55   0
   6   2   3 1965.14   64.83   0
   7  11   4   24.76   28.94   0
   8   6   4   30.66   31.49   0
  10   7   3   27.10   39.57   0
   1   3   2   31.62   23.38   0
   1  11  -1   70.84   38.06   0
   2  10   2  767.81   37.34   0
   4   5   4 1641.84   46.88   0
   4   9   4  157.18   25.89   0
   4  13   1   76.20   32.04   0
   5  12   3  103.63   27.10   0
   5  13   2  139.66   31.90   0
   7   5   4  198.05   34.06   0
   8  10   4  290.60   32.47   0
  -2  -1  -3   22.77   24.37   0
   2  11   1  431.82   33.18   0
   5   2   3   -2.53   31.40   0
   5  10   4  519.27   29.25   0
   6  -1   1  841.48   65.98   0
   8   7   4  436.79   38.43   0
   8   9   4   45.35   29.47   0
   9   5   3  143.17   36.53   0
   2   7   3   12.56   19.45   0
   3  11   2  244.83   30.21   0
   3  12   1   13.87   28.80   0
   3  13  -1  321.71   43.01   0
   4   8   4 1476.53   39.14   0
   4  12   2   -1.67   28.65   0
   6  10   4  280.42   29.46   0
   6  12   3  322.69   30.51   0
   7  10   4  293.88   29.81   0
   0   3   1 1894.04   79.18   0
   1   9   1  392.75   33.62   0
   2  12  -1  167.84   38.79   0
   3   3   3 3105.60   74.11   0
   4   6   4    5.00   18.14   0
   4   7   4 1168.58   37.27   0
   5   5   4 1323.44   42.42   0
   5   9   4  860.23   32.75   0
   7   1   2  576.15   49.64   0
   9   3   2   62.65   42.33   0
  10   5   2    4.40   46.34   0
   0   8   0  265.81   34.19   0
   1  10   0   -8.17   30.31   0
   3   9   3   -0.34   21.22   0
   7   3   3  569.63   41.05   0
   7   9   4  768.02   34.13   0
   8   4   3   35.23   33.88   0
   9   6   3   33.58   35.00   0
   0   9  -1  434.10   39.33   0
   5   6   4 2225.39   49.82   0
   5   8   4   79.31   22.93   0
   5  11   3  611.38   29.12   0
   6   6   4   14.84   23.29   0
   6   9   4    9.06   21.01   0
   7   8   4  104.34   24.66   0
   8   2   2   24.06   38.32   0
  -3   2  -4   67.51   44.97   0
   0   4   1  219.82   34.47   0
   0   5   1 4434.11   91.83   0
   1   4   2   87.67   22.93   0
   1   6   2 2870.12   62.68   0
   4  10   3  750.24   31.15   0
   5   7   4  380.87   26.25   0
   6   7   4  894.84   34.53   0
   6   8   4  563.06   31.59   0
   6  11   3   56.18   24.35   0
   7  11   3  308.58   34.29   0
   9   7   3  395.56   38.76   0
   9   8   3  241.80   37.61   0
  10   6   2  109.78   39.93   0
   2  11   0  237.49   34.41   0
   3  12   0  314.85   32.86   0
   4  -5  -2  971.03   93.07   0
   8  10   3   77.72   30.51   0
  -3   1  -4 1590.30   73.19   0
   2  10   1   -0.90   25.35   0
   3   8   3 1346.33   39.37   0
   4  12   1  615.80   35.74   0
   6   3   3 1414.75   52.90   0
   6  12   2    0.34   26.70   0
   8   5   3  637.82   40.02   0
  -1  -2  -2 3433.46   90.94   0
  -1   6  -1 2099.83   73.66   0
   3   4   3 3191.91   67.21   0
   3  11   1  341.27   30.84   0
   4   3   3 2357.40   61.60   0
   8   9   3  562.07   34.71   0
   9   4   2   90.75   40.97   0
  -1   8  -3  193.68   44.28   0
   3  -5  -2 1150.33   79.26   0
   3   1   2  765.82   52.96   0
   4   9   3 1574.16   40.76   0
   5  -1   1  365.13   55.55   0
   6  10   3  110.88   27.23   0
   7   4   3 1729.18   55.79   0
   7  10   3  238.86   29.34   0
   8   6   3  552.17   38.36   0
   9   2   1  123.05   43.36   0
  10   4   1  176.64   49.13   0
   1   8   1  742.57   36.40   0
   1  10  -1  847.64   44.28   0
   2   8   2  654.51   31.98   0
   3   7   3  842.09   33.81   0
   6  -2   0   67.11   56.22   0
  -3   0  -4  908.25   51.05   0
   2   2   2  947.72   51.22   0
   3   5   3  633.54   33.42   0
   3   6   3  111.10   20.97   0
   3  12  -1  162.24   30.39   0
   5  11   2  161.75   23.73   0
   7   0   1  823.68   55.47   0
   7   9   3    9.80   23.88   0
   9   5   2  466.55   43.37   0
   0  -2  -1 2926.90  107.12   0
   0   7   0 2167.56   59.68   0
   0   9  -2  375.25   40.50   0
   1   9   0  720.47   39.19   0
   2  11  -1  543.19   36.76   0
   4   8   3  284.79   23.79   0
   4  12   0  138.77   31.35   0
   5   9   3    2.88   21.82   0
   6  11   2  387.50   30.06   0
   7   5   3  301.34   34.55   0
   7  11   2  182.02   31.73   0
   8   1   1  513.52   48.67   0
   8   3   2  649.96   44.73   0
  -1   7  -2  840.83   51.46   0
   3   9   2 1945.47   44.56   0
   6   9   3  749.61   34.21   0
   7   2   2 1359.63   54.16   0
   7   8   3  421.69   29.08   0
   8  10   2  336.83   34.66   0
   9   6   2  361.89   40.61   0
   9   8   2  369.47   37.17   0
  10   5   1  309.59   44.30   0
   3  12  -2   82.78   36.55   0
   4   4   3  196.95   25.00   0
   5   1   2  712.31   47.93   0
   7   7   3  621.14   32.10   0
   9   7   2  -23.55   34.00   0
  10   6   1  100.32   39.76   0
   0   8  -1 1792.04   58.04   0
   2   7   2 2569.25   53.18   0
   2  10   0  802.53   36.21   0
   4   7   3  506.14   27.41   0
   5   4   3 1384.51   43.53   0
   5   8   3  912.30   33.22   0
   5  12   0  382.88   35.30   0
   6   8   3  243.60   26.29   0
  -2   6  -4 1066.23   79.32   0
   4   5   3 2679.97   55.28   0
   4   6   3 2798.69   52.77   0
   4  12  -1  242.87   32.85   0
   5  10   2   49.77   23.11   0
   7  10   2   69.53   28.89   0
   8   4   2  810.91   43.41   0
   8   9   2   74.53   27.21   0
   9   3   1  646.30   49.62   0
   1  10  -2  400.73   38.31   0
   2  11  -2   18.23   33.42   0
   3  12  -3  304.56   43.79   0
   5   5   3 1200.02   38.72   0
   5   7   3 2162.13   44.75   0
   5  11   1  150.60   26.80   0
   6   6   3  883.06   35.37   0
   6   7   3   61.55   23.66   0
   6  10   2  701.08   33.44   0
   7  11   1  226.03   32.99   0
   1   1   1 4712.71  148.56   0
   2   3   2 3794.10   83.24   0
   2   6   2  906.48   37.25   0
   4   9   2   48.68   24.08   0
   5   6   3  196.52   23.30   0
   6  11   1  355.59   28.95   0
   8   8   2  138.28   29.26   0
  -1   5  -1  716.93   51.72   0
   0   9  -3    5.33   34.82   0
   7   3   2  660.97   40.90   0
   8   5   2   12.14   30.07   0
   0   6   0 1717.09   57.13   0
   3  11  -1   12.67   29.03   0
   4  11   0   50.71   26.31   0
   4  12  -2  230.16   35.61   0
   6   2   2   32.40   27.28   0
   8   0   0  633.98   54.20   0
   8   6   2  535.12   36.53   0
   9   4   1  327.01   38.09   0
  10   4   0   80.07   44.41   0
   1   8   0 1150.36   43.22   0
   4  10   1   45.16   22.76   0
   5   9   2  930.43   33.30   0
   6   9   2  210.08   28.14   0
   7  -1   0  408.88   52.54   0
   8   2   1  503.87   47.24   0
   1   6   1 1315.00   45.91   0
   1  10  -3  212.02   41.36   0
   2  10  -1   47.21   26.55   0
   3   2   2 3912.99   86.23   0
   6   0   1    4.32   38.58   0
   7   8   2  625.06   33.58   0
   9   5   1    3.12   33.84   0
   9   6   1  299.77   38.30   0
  10   5   0   86.50   38.68   0
  -2   0  -2  653.05   52.65   0
   3   7   2    2.08   18.44   0
   3  10   0   21.39   25.15   0
   4   8   2  696.35   29.34   0
   6  10   1  -15.16   25.04   0
   6  11   0   90.17   25.91   0
   7   1   1  216.77   40.62   0
   7   4   2  243.55   33.72   0
   8   9   1  228.35   32.03   0
   2   9   0  640.63   34.13   0
   6   8   2  358.58   27.76   0
   7   7   2   22.59   23.23   0
   9   2   0  327.41   45.75   0
   0   8  -2   42.07   31.53   0
   3  11  -2  463.25   34.93   0
   4   2   2   53.82   25.81   0
   4  11  -1  788.72   37.43   0
   5   8   2  796.37   31.13   0
   6   3   2 1102.06   45.07   0
  -1   7  -3  336.67   41.13   0
   0   7  -1  482.57   36.41   0
   3   6   2  856.80   33.32   0
   7   9   1  256.83   29.89   0
   8   3   1   32.31   34.36   0
   1   5   1  581.26   34.63   0
   6   7   2 1096.41   37.35   0
   2   7   1   55.43   19.75   0
   2  10  -2  468.12   36.23   0
   3   3   2 4636.28   82.85   0
   3  11  -3  139.30   32.42   0
   5   7   2   80.79   19.22   0
   6   9   1  438.16   31.72   0
   7  10   0   83.24   31.07   0
   9   3   0   10.73   37.87   0
   1   9  -2  135.41   30.85   0
   3   4   2  454.20   29.51   0
   3   5   2 3579.49   62.70   0
   3   8   1  339.95   24.26   0
   3  10  -1  438.51   32.40   0
   4  11  -2   28.09   28.82   0
   5   9   1  586.23   30.78   0
   5  10   0   10.17   22.82   0
   6   5   2   51.67   23.35   0
   6   6   2  306.66   26.47   0
   6  10   0  598.73   32.37   0
   8   4   1  332.86   35.45   0
   9   7   0  146.79   35.32   0
  10   4  -1  201.72   42.90   0
   4   3   2  914.95   39.68   0
   4   6   2 1011.38   33.52   0
   7   8   1  117.09   26.48   0
   8   5   1  743.83   39.15   0
   9   4   0  360.42   38.80   0
  10   5  -1  152.61   40.87   0
   1   2   1   41.56   22.35   0
   3  11  -4  190.54   37.54   0
   5   6   2 1544.15   40.46   0
   5  11  -2  455.35   34.88   0
   7   2   1   97.86   30.14   0
   9   6   0   36.84   33.68   0
   4   4   2 2927.12   58.11   0
   4   5   2  334.36   24.79   0
   5   4   2  142.82   21.49   0
   5   5   2 1787.88   43.74   0
  -4   6   7  239.01   22.40   0
  -4   6   8  537.62   27.29   0
  -4   7  10  674.19   29.50   0
  -4   9   7   11.88   17.88   0
  -4  10   8  261.62   26.28   0
  -2  11   2  451.67   37.53   0
   2   4  -4   37.46   28.85   0
  -4   7   7  712.74   29.26   0
  -4   7   9  263.35   26.25   0
  -4   8   7  234.27   21.43   0
  -4   9  11  361.70   31.19   0
  -4  10   9  124.78   23.34   0
  -4  10  10  594.60   31.43   0
  -3   3   4 1691.39   39.49   0
  -3   9   3  109.47   22.63   0
  -2   2  10  352.56   31.81   0
  -2  12   3  312.30   37.26   0
  -1   1  10 1031.76   53.97   0
  -1   2  12  843.79   51.18   0
  -1   8  -1   36.23   27.27   0
  -4   7   8  229.40   24.12   0
  -4   8   8  167.45   22.39   0
  -4   8   9  624.67   30.91   0
  -4   8  10    7.01   22.31   0
  -4   9   8  656.40   27.37   0
  -4   9   9   91.18   22.23   0
  -4   9  10  272.12   28.40   0
  -3   3   8  346.11   24.59   0
  -3   6  13   97.44   30.20   0
  -3   7  14  141.96   31.40   0
  -2   1   4 5214.48   81.06   0
  -3   4   3 2297.53   44.99   0
  -3  10   4  584.88   31.35   0
  -3  12   6   -5.28   24.61   0
  -2   1   6  793.32   36.23   0
  -2   4  13   31.97   33.58   0
  -3   3   5  456.79   24.37   0
  -3   3   6 2068.35   43.92   0
  -3   3   7  653.50   28.10   0
  -3   8   3  443.10   27.83   0
  -3  11   5  349.86   27.50   0
  -2   1   5 1570.71   45.68   0
  -2   5  14  461.14   37.85   0
  -2   6  15  288.86   38.28   0
   0   8  -2   46.74   39.68   0
  -3   5   3 1121.82   32.86   0
  -3  12   7  499.66   32.53   0
  -2   2   2  423.53   26.59   0
  -2   2   9  155.25   28.31   0
  -2   3   1 1924.47   50.50   0
  -2   3  11  373.82   34.75   0
  -1   0   3 2749.49   80.40   0
  -1   3  13  466.32   44.70   0
  -3   4   4  947.99   31.54   0
  -3   4   9  378.02   26.04   0
  -3   6   3   63.99   16.18   0
  -3   9   4  719.57   31.81   0
  -2  10   2  387.54   32.37   0
  -3  10   5    3.79   22.37   0
  -3  11   6  306.63   28.00   0
  -2   8   1  482.77   29.92   0
  -2  13   5  410.59   38.53   0
   0   1  11  924.44   59.10   0
  -3   4   5  659.11   26.52   0
  -3   5  10  910.25   33.53   0
  -3  12   8   20.64   26.85   0
  -2   4  12 1118.88   43.13   0
  -2  11   3   10.75   28.78   0
  -2  12   4  217.63   32.94   0
  -1   4  14    9.30   40.04   0
  -1   6  16  260.77   46.51   0
   1   0  10  440.46   65.21   0
  -3   4   6 1448.89   36.99   0
  -3   4   7    5.38   16.46   0
  -3   7  12    3.14   23.66   0
  -3   9  13   34.65   25.70   0
  -1   1   9  193.06   31.63   0
  -1   2  11   13.36   33.83   0
  -1   5  15  348.91   42.59   0
   2  -2   3  651.17   43.35   0
  -3   6   4 2664.15   46.87   0
  -3   7   4  535.44   25.42   0
  -3  11   7  127.08   24.61   0
  -2   5  13  575.21   39.22   0
  -2   6  14   19.43   29.67   0
  -3   5   9  385.45   25.99   0
  -2   3  10 2059.25   51.20   0
  -2   4   1   36.86   16.80   0
  -2   7   1   20.35   18.74   0
   1  -1   7 1883.09  135.38   0
  -3   5   5 1025.29   31.42   0
  -3   6  10  402.95   26.44   0
  -3  10  12   -4.49   26.51   0
  -3  11   9   74.45   25.41   0
  -2   2   3 4627.51   74.34   0
  -2   8  15   15.63   33.01   0
  -2   9   2   -4.13   22.11   0
  -2  13   6   55.41   27.83   0
  -1   6  -1 2030.43   62.72   0
  -3   5   6   10.33   15.32   0
  -3   5   8  680.28   28.50   0
  -3   8   5  948.46   30.80   0
  -3  11  10  372.72   29.12   0
  -2   2   7  117.84   21.03   0
  -3   5   7 1243.47   33.44   0
  -3   6   5  360.62   22.45   0
  -3   6   9 1317.04   36.79   0
  -3   7   5   27.91   16.38   0
  -3   7  10   86.07   23.89   0
  -3   8  11  144.70   23.35   0
  -3   9  11  301.21   28.14   0
  -3  10   8  663.73   28.86   0
  -3  10  11  457.85   32.17   0
  -2   4  11  437.92   34.19   0
  -2  10   3  430.12   30.68   0
  -2  12   5  223.12   28.24   0
  -1   3  12  157.60   38.00   0
  -1   5  -1  671.44   40.30   0
  -1   7  16  292.55   43.22   0
   2  -2   5  127.46   46.30   0
  -3   6   6  597.96   26.04   0
  -3   9   7 1338.67   35.26   0
  -3  10   9  605.81   28.22   0
  -3  10  10   29.17   21.84   0
  -2   2   4  810.83   33.83   0
  -2   5  12  117.49   29.54   0
  -2  11   4  972.42   37.49   0
  -1   1   1 3104.65   88.79   0
   1  -1   0 3398.39   89.82   0
  -3   6   7 1052.90   32.30   0
  -3   6   8  145.06   21.35   0
  -3   7   6 1586.65   38.10   0
  -3   7   9  501.42   27.75   0
  -3   8  10  722.68   31.82   0
  -3   9   8   40.96   20.32   0
  -3   9   9  751.08   31.64   0
  -3   9  10  332.85   27.77   0
  -2   2   5  780.66   32.49   0
  -2   8   2  533.80   30.20   0
  -2  13   7  398.99   33.13   0
  -1   4  13  587.84   43.74   0
  -1  10   1  544.78   38.67   0
   0   0   8  749.50   54.31   0
  -3   7   7   -7.21   19.38   0
  -3   7   8 1058.63   34.37   0
  -3   8   7  434.33   25.87   0
  -3   8   8  765.27   29.59   0
  -3   8   9   29.68   23.02   0
  -1   2   0 2273.95   74.42   0
  -1   2  10 1269.55   50.27   0
  -1   5  14  211.17   37.92   0
  -2  12   6  416.97   31.74   0
  -2  13   8  420.16   33.13   0
  -1  13   4  494.83   38.96   0
  -2   7  13    9.88   26.82   0
  -2   9   3 1088.43   37.19   0
  -1  11   2  103.50   30.69   0
  -1  12   3   98.54   32.01   0
   0   1  10  119.99   39.92   0
  -2   3   3 4011.77   66.58   0
  -2   3   8  745.94   30.93   0
  -2   4   2 3833.68   64.00   0
  -2   7   2  780.15   31.48   0
  -2  10   4  102.15   23.32   0
  -2  11   5  217.17   27.37   0
   0   3  13  377.89   44.84   0
  -2  12   7   20.22   25.49   0
  -1   7  15  217.66   34.88   0
  -1  14   6  134.04   32.43   0
   0   5  15   85.97   42.08   0
   0   9  -1  411.84   42.14   0
  -2   5   2  752.35   29.77   0
  -1   3  11  467.09   36.44   0
  -2   3   7  682.82   29.67   0
  -2   4   9  575.95   29.86   0
  -2   8   3  562.62   27.77   0
  -2  10  13  232.70   29.80   0
  -2  12   8  426.24   30.22   0
  -1   6  14  688.19   40.64   0
  -2   3   4  237.22   21.48   0
  -2  11   6  356.23   26.65   0
  -2  12  10   99.69   26.32   0
  -1   5  13  196.09   32.52   0
  -1  13   5    8.11   27.42   0
   1   0  -2 3075.14   79.77   0
  -2   3   5 3495.51   60.19   0
  -2   5  10  129.05   22.25   0
  -2  10   5  887.66   32.71   0
  -2  11  12  496.94   34.68   0
  -1   2   9 1492.43   49.78   0
  -1   7   0  194.51   26.75   0
  -1   9   1  155.54   28.27   0
  -1  14   7   26.67   29.92   0
   1   7  -3    5.10   51.37   0
  -2   4   3   22.92   13.93   0
  -2   8  12  341.84   25.54   0
  -2   9  12  103.44   23.26   0
  -1   1   2    8.47   17.04   0
  -1  12   4  295.00   31.50   0
   0   7  16  231.88   42.90   0
   1   1  11  114.29   47.46   0
  -2   4   8   -3.39   16.34   0
  -2   7  11  151.72   23.26   0
  -2  11  10   71.44   23.33   0
  -1  10   2  298.20   31.57   0
  -1  11   3 1078.35   41.45   0
   0   2  11 1006.31   53.37   0
  -2   5   3  741.49   29.13   0
  -2   6   3 4887.33   65.61   0
  -2  10  11   16.40   23.62   0
  -2  11   9  889.01   31.51   0
  -1   3   0 2518.52   71.78   0
   0  10   0  784.27   44.30   0
  -2   9  11  483.57   29.63   0
  -1   3  10   26.74   25.10   0
  -1  13   6  506.61   32.59   0
   0   6  15  448.49   44.61   0
   1   1  -3  214.03   28.49   0
  -2   4   5 1385.75   37.40   0
  -2   4   6  206.30   20.45   0
  -2  10   7  976.49   32.32   0
  -1   6   0  484.84   32.97   0
  -1   6  13  241.94   31.38   0
   0   3  12  482.01   45.43   0
   0   8  16  460.52   43.08   0
  -2   5   8  790.61   29.83   0
  -2   7   4  872.49   29.82   0
  -2   7  10  673.61   30.41   0
  -2   8  10   34.59   22.31   0
  -2   9   6  669.04   28.64   0
  -2   9  10  469.52   30.29   0
  -2  10   8  321.69   23.43   0
  -2  10   9  259.92   23.71   0
  -1   1   3 3738.90   84.55   0
  -1   4  11  736.88   38.13   0
   0   1   9 1576.52   62.54   0
   0   4  13   -0.44   38.29   0
   0   5  14  304.04   43.57   0
   0  11   1  229.73   34.23   0
   0  12   2    0.62   31.66   0
  -2   6   4  448.58   23.76   0
  -2   6   9    1.26   19.85   0
  -2   8   5  381.25   22.49   0
  -2   9   9   99.21   22.45   0
  -1   1   4  137.63   22.92   0
  -1   8   1  258.45   26.41   0
  -1  12   5  565.23   32.41   0
  -1  13   7  193.73   27.65   0
  -2   5   5   88.40   16.39   0
  -2   5   7  477.05   25.00   0
  -2   7   9 1410.18   38.00   0
  -2   8   9 1051.65   34.32   0
  -2   9   7   53.35   19.22   0
  -2   9   8 1270.00   35.95   0
  -1   2   1  310.88   29.99   0
   0  14   5  245.10   37.40   0
   1   2  12  772.35   56.46   0
  -2   5   6 1556.89   37.82   0
  -2   6   5 1554.35   37.65   0
  -2   6   8 2822.15   48.27   0
  -2   8   6  492.63   26.10   0
  -2   8   8  717.97   30.21   0
  -1   7  13 1003.38   39.40   0
  -1   9   2 1378.64   42.09   0
  -1  11   4   80.50   23.43   0
  -1  13   8  161.47   27.25   0
  -2   6   6  541.87   25.30   0
  -2   6   7  569.96   26.12   0
  -2   7   6   31.07   16.72   0
  -2   7   8  113.32   20.69   0
  -2   8   7  865.19   30.71   0
  -1  10   3  901.76   36.19   0
  -1  12   6   24.16   25.28   0
  -2   7   7 1372.44   34.83   0
  -1  11  13  556.47   33.13   0
   0  13   4    6.23   30.27   0
   1   3  13  333.54   46.79   0
   1   4  14   26.75   43.40   0
  -1   7   1  632.46   32.69   0
  -1   9  13   21.18   24.77   0
  -1  10  13  581.47   31.52   0
   0   6  14   47.72   33.58   0
   0  14   6  161.69   31.17   0
  -1  11   5  563.98   30.91   0
  -1  12   7  473.41   29.40   0
  -1  12  11  140.82   27.46   0
   0   0   6   38.76   32.46   0
   0   2  10  339.15   36.90   0
   0   8  15   94.69   34.22   0
  -1  11  12  247.64   29.24   0
  -1  12   9  452.87   30.31   0
  -1  12  10  308.32   25.23   0
   0   9   0  241.43   31.76   0
   0  12   3  577.83   37.16   0
  -1  10   4 1570.81   41.72   0
  -1  10  12   67.23   23.35   0
   0   5  13  851.20   43.51   0
   0  14   7  415.20   33.65   0
  -1   2   6   21.95   17.78   0
  -1   8   2  699.52   32.29   0
  -1   8  12  685.16   30.59   0
  -1   9   3   10.77   20.51   0
  -1   9  12  593.52   29.94   0
  -1  11   6  482.24   29.41   0
  -1  11  11  211.90   27.08   0
   0   3  11    4.76   27.47   0
   0   4  12  600.25   41.07   0
   0  10   1   19.68   29.00   0
   0  11   2  383.99   34.38   0
   0  13   5  487.47   32.72   0
  -1   2   2 3934.63   83.72   0
  -1   3   1 4143.59   83.67   0
   0   1   8  222.77   32.57   0
   0  14   8   -3.83   26.79   0
   1   6  15   12.67   41.58   0
  -1  11  10  620.89   30.05   0
   1   1  10 1713.97   72.60   0
   1   8  16    3.36   35.67   0
  -1   9  11  191.34   24.43   0
  -1  10   5   34.24   22.22   0
  -1  11   8  827.52   29.84   0
  -1  11   9   13.15   19.04   0
   0   7  -1  475.43   38.83   0
   1  15   6    2.76   33.50   0
  -1   2   5 2422.65   58.26   0
  -1   4   1 2378.53   60.29   0
  -1   5   1   22.43   19.29   0
  -1   8  11   37.27   21.77   0
  -1  10  10   32.75   23.50   0
   0   6  13  949.62   41.23   0
   0  12   4  332.96   32.33   0
   0  13   6   22.10   25.75   0
  -1   2   3  275.19   25.37   0
  -1   2   4 2707.04   63.88   0
  -1   3   7 1534.07   43.73   0
  -1   6  10   59.86   21.97   0
   1   5  14  379.51   43.60   0
  -1   9  10   89.27   23.75   0
  -1  10   7  103.96   21.07   0
  -1  10   9  679.15   29.98   0
   0  13   7  365.44   31.35   0
   1   0  -3 2818.79   72.92   0
  -1   4   8 1651.34   42.38   0
  -1   5   9  526.97   27.84   0
  -1   7  10  784.38   31.89   0
  -1   8  10 1032.97   34.74   0
   0   5  12   32.55   27.49   0
   0  13  11  -12.10   24.89   0
  -1   9   9  598.62   28.89   0
   0   7  13   57.93   26.98   0
   0  11  13  237.12   30.59   0
   0  13   8  447.77   31.44   0
   0  13  10  532.62   33.93   0
   1  -1  -2   13.80   14.91   0
  -9  -6  -7  183.88   31.68   0
  -7   1  -7  435.18   30.72   0
  -6  -6  -6  132.02   28.76   0
  -6   0  -7  806.78   35.99   0
  -6   5  -5   55.42   35.19   0
  -4  -2  -6 1791.34   45.44   0
  -4   0  -6   67.78   21.98   0
  -4   7  -3  485.87   50.84   0
  -3  -2  -5 1282.72   41.61   0
  -2   0  -4  696.19   35.17   0
  -2   1  -4  498.47   31.17   0
  -4  -1  -6  563.00   30.77   0
  -3  -4  -4   80.70   22.89   0
  -3   1  -5 2106.71   51.64   0
  -6  -7  -5  545.13   34.37   0
  -6  -3  -7 1331.30   39.83   0
  -6  -2  -7   59.74   24.24   0
  -6  -1  -7  766.44   34.61   0
  -5   2  -6   37.75   23.61   0
  -5   6  -4   47.26   35.85   0
  -1  -1  -2 3552.35   99.33   0
  -1   6  -1 2107.82   77.09   0
  -9  -7  -6  347.65   35.95   0
  -8  -8  -5   13.77   33.40   0
  -8  -7  -6  323.28   33.44   0
  -7  -4  -7  232.38   25.77   0
  -7   0  -7   13.77   23.78   0
  -4   8  -2    3.43   46.87   0
  -3   4  -4 1358.77   47.39   0
  -9  -8  -5  352.55   41.08   0
  -7  -1  -7  310.73   30.96   0
  -6   6  -4  498.50   42.00   0
  -5  -4  -6 1100.07   36.75   0
  -5   4  -5   30.46   30.03   0
  -4   5  -4  764.79   43.80   0
  -8  -4  -7  511.26   29.68   0
  -8  -1  -7  114.45   30.75   0
  -7  -3  -7  120.17   25.34   0
  -7  -2  -7  562.11   32.65   0
  -6   2  -6  713.85   36.52   0
  -5   1  -6  777.70   36.09   0
  -5   7  -3  126.79   41.22   0
  -4  -4  -5  311.81   24.69   0
  -2   6  -2 1879.54   62.37   0
  -8  -3  -7  522.55   29.93   0
  -8  -2  -7   39.32   25.17   0
  -7  -6  -6  582.58   33.90   0
  -7   2  -6   50.73   30.50   0
   1   3   2   31.63   24.58   0
  -7  -8  -4   92.45   33.83   0
  -7   4  -5    3.38   31.91   0
  -6  -8  -3  245.51   35.40   0
  -6   7  -3  357.44   43.41   0
  -5  -3  -6 1382.96   39.83   0
  -5   0  -6 1607.70   44.37   0
  -3   7  -2  519.11   47.57   0
  -8  -6  -6   91.05   28.81   0
  -7  -7  -5  301.05   32.36   0
  -5  -2  -6  138.97   22.70   0
  -5  -1  -6  382.74   26.80   0
  -5   8  -2  732.44   52.73   0
  -4   2  -5   -2.76   20.88   0
  -1   3  -2   47.11   26.06   0
  -8   1  -6  141.12   31.58   0
  -6   1  -6  475.11   30.27   0
  -5  -8  -1   21.62   41.71   0
  -5   5  -4  358.72   35.67   0
  -3  -7   2 1319.87  102.59   0
  -6  -6  -5 1770.85   47.81   0
  -6  -4  -6  899.50   34.07   0
  -4  -6  -3 2850.98   72.53   0
  -4  -3  -5 3299.48   59.86   0
  -4   6  -3   14.07   32.66   0
  -3  -3  -4 2579.98   59.02   0
  -9  -8  -4   81.73   35.62   0
  -9  -7  -5  443.19   36.22   0
  -9  -5  -6   38.64   28.43   0
  -8  -7  -5  242.00   31.96   0
  -7   5  -4  228.97   36.15   0
  -6   0  -6  111.36   25.23   0
  -6   5  -4  269.60   36.56   0
  -4   1  -5 1086.65   38.03   0
  -4   4  -4    9.57   29.03   0
  -3   5  -3  562.37   38.23   0
  -3   8  -1    8.11   40.92   0
  -2  -2  -3 5768.58   98.95   0
  -2   3  -3  166.37   28.55   0
  -8   0  -6   60.22   28.08   0
  -6  -7  -4  873.21   40.87   0
  -6  -3  -6   21.23   21.64   0
  -2   7  -1  517.18   47.78   0
  -1   0  -2  430.80   36.26   0
  -1   7   0  209.46   46.32   0
  -9  -2  -6  123.65   31.28   0
  -7  -4  -6  290.44   25.04   0
  -7   0  -6  548.05   32.42   0
  -6  -2  -6  486.11   29.59   0
  -6  -1  -6 1011.01   36.82   0
  -5  -6  -4 2326.38   58.04   0
  -4  -2  -5 1064.71   36.53   0
  -3   2  -4   61.36   22.38   0
  -1   2  -2 3051.43   79.78   0
  -9  -3  -6  420.45   30.65   0
  -8  -4  -6  449.50   29.39   0
  -8  -1  -6  452.44   32.59   0
  -7  -1  -6  173.87   27.12   0
  -5   2  -5  551.59   31.41   0
  -5   6  -3  663.31   41.30   0
  -4  -7  -1   41.77   40.37   0
  -4  -1  -5  235.28   24.08   0
  -3   9   0  568.83   54.18   0
  -1   1  -2 5519.02  109.68   0
  -8  -3  -6   35.59   21.61   0
  -8  -2  -6  665.58   32.54   0
  -8   2  -5  -19.37   31.97   0
  -7  -8  -3  399.71   39.43   0
  -7  -6  -5   67.86   26.96   0
  -7  -3  -6 1130.33   36.67   0
  -7  -2  -6  182.51   25.42   0
  -7   6  -3  363.49   39.51   0
  -6   6  -3   -8.82   32.27   0
  -5  -4  -5 1662.89   43.64   0
  -3  -2  -4 2025.94   51.78   0
  -2  -6   3   56.09   35.42   0
  -2   5  -2  208.97   32.35   0
 -10  -7  -4  284.56   38.85   0
  -9  -6  -5   -4.69   29.89   0
  -8  -6  -5  564.80   34.55   0
  -6   2  -5    7.78   23.56   0
  -5   4  -4  913.36   41.44   0
  -2   2  -3  667.25   35.69   0
  -1   5  -1  711.07   48.06   0
  -7  -7  -4  256.92   32.02   0
  -6  -8  -2  309.28   39.34   0
  -5   1  -5  150.82   25.51   0
  -2  -1  -3   17.60   18.53   0
  -1  -4   1  411.68   52.68   0
  -9  -8  -3  225.01   38.78   0
  -8  -8  -3  298.82   39.75   0
  -7   4  -4  612.78   38.26   0
  -6   4  -4   -8.01   27.78   0
  -5   7  -2  366.74   41.65   0
  -4   8  -1  642.77   50.01   0
  -3  -1  -4   72.68   20.22   0
  -3   0  -4  997.31   38.29   0
  -3   6  -2  211.59   35.12   0
  -2   8   0  178.70   40.99   0
  -9  -5  -5  480.12   35.22   0
  -8  -7  -4  406.62   37.71   0
  -8   1  -5  326.67   30.67   0
  -6   7  -2  216.50   35.36   0
  -5  -3  -5   11.39   18.46   0
  -4  -4  -4 1076.87   38.34   0
  -2   1  -3 2309.01   59.40   0
  -7   1  -5  244.93   28.42   0
  -6   1  -5  861.00   34.96   0
  -5   0  -5   64.71   20.83   0
  -4   9   0  132.86   47.17   0
  -3  -5  -2 3446.26   91.23   0
  -2   0  -3 1542.61   49.34   0
  -1  -2  -1   41.55   30.10   0
 -10  -6  -4   15.92   31.95   0
  -9  -1  -5  245.35   31.30   0
  -8  -5  -5  225.63   26.51   0
  -6  -6  -4   19.14   25.07   0
  -6   8  -1  490.74   49.73   0
  -5  -2  -5 1512.74   40.18   0
  -5  -1  -5  712.65   30.43   0
  -5   8  -1   10.86   40.42   0
  -1   8   1  238.97   49.28   0
  -9  -3  -5    8.64   24.92   0
  -9  -2  -5  205.41   29.80   0
  -7   5  -3   83.42   33.11   0
  -6  -7  -3   54.86   29.19   0
  -5  -8   0  615.75   61.48   0
  -5   5  -3  311.46   33.57   0
  -4   2  -4 2877.69   55.68   0
  -2  -6   2 1651.72   84.82   0
 -10  -7  -3   -8.43   35.67   0
  -7   0  -5  255.56   28.66   0
  -6  -3  -5  861.20   33.05   0
  -6   0  -5  871.48   34.68   0
  -6   5  -3  333.30   33.72   0
   1   1   2 3818.01   89.76   0
  -9  -6  -4  382.62   34.81   0
  -8  -3  -5  731.90   31.45   0
  -8  -1  -5    7.65   24.63   0
  -7  -8  -2  592.33   41.85   0
  -6  -2  -5  490.79   29.17   0
  -6  -1  -5  152.88   23.37   0
  -5  -7  -2   83.46   32.88   0
  -4  -3  -4   27.44   19.23   0
  -8  -6  -4   35.69   26.13   0
  -8  -2  -5  375.50   27.41   0
  -8   2  -4  467.60   31.80   0
  -7  -6  -4  820.73   37.20   0
  -7  -3  -5  136.74   22.01   0
  -7  -1  -5 1270.12   39.04   0
  -3   3  -3 2403.91   56.28   0
  -2   6  -1  257.74   36.37   0
  -9  -7  -3  367.49   36.22   0
  -8  -8  -2  119.35   35.84   0
  -7  -2  -5  430.67   27.86   0
  -7   6  -2   21.61   32.83   0
  -5  -6  -3  208.61   28.11   0
  -4  -6  -2 1048.80   51.45   0
  -4   1  -4  295.97   25.95   0
  -6   6  -2  545.70   38.50   0
  -5   2  -4  336.68   27.55   0
  -5   6  -2    7.89   28.63   0
 -10  -6  -3  253.45   34.36   0
  -9  -5  -4  372.29   32.78   0
  -9   0  -4  221.04   31.27   0
  -8  -7  -3   38.11   30.55   0
  -7   2  -4   55.80   22.59   0
  -7   7  -1  350.26   40.38   0
  -6   2  -4  837.81   33.68   0
  -5  -4  -4  291.06   24.67   0
  -4  -2  -4 1594.87   42.95   0
  -4   0  -4 1676.12   43.96   0
  -3  -3  -3 3028.82   66.83   0
   0   6   1  477.81   65.17   0
 -10  -7  -2  296.88   40.31   0
  -8   1  -4    9.94   24.09   0
  -4  -1  -4 2471.27   51.06   0
  -9  -1  -4   17.78   26.27   0
  -8  -5  -4  363.07   29.03   0
  -5   1  -4 2266.12   47.39   0
  -4   7  -1  119.93   35.15   0
  -3   2  -3 2502.87   56.71   0
 -10  -5  -3  351.67   34.92   0
  -9  -3  -4  275.81   28.40   0
  -9  -2  -4  354.83   27.36   0
  -8   3  -3   19.24   28.43   0
  -7   1  -4  703.45   32.42   0
  -6   7  -1  117.78   32.44   0
  -1   6   0  512.13   46.55   0
  -9  -6  -3   45.51   28.88   0
  -8   0  -4  438.18   30.33   0
  -6   1  -4   44.66   22.73   0
  -5  -3  -4 2068.59   45.84   0
  -5   7  -1  411.42   36.72   0
  -4   3  -3  170.41   24.61   0
  -3   9   1   30.33   40.89   0
  -2   3  -2 2226.76   61.52   0
  -8  -1  -4  984.57   36.94   0
  -7  -8  -1  100.34   34.96   0
  -7   5  -2  335.11   35.15   0
  -6  -7  -2 1059.10   47.13   0
  -6  -6  -3  885.41   38.00   0
  -6  -4  -4 1585.82   39.32   0
  -6   8   0  201.17   38.40   0
  -5   0  -4 1718.97   41.87   0
 -10  -4  -3   33.80   30.36   0
  -9  -7  -2   -0.56   32.76   0
  -8  -6  -3  547.86   33.97   0
  -8  -3  -4  147.30   22.51   0
  -7   0  -4  641.85   32.87   0
  -7   3  -3  624.77   32.72   0
  -5  -2  -4 2278.33   46.84   0
  -5  -1  -4    7.21   18.39   0
  -4   5  -2  360.68   30.08   0
  -4   8   0  118.89   38.34   0
  -3  -2  -3 1409.20   45.92   0
  -3   1  -3   86.90   20.98   0
   2   6   4  461.70   40.37   0
 -10  -6  -2   82.82   32.06   0
  -8   2  -3  265.05   24.95   0
  -7  -6  -3  275.39   29.26   0
  -6  -3  -4  303.47   22.76   0
  -6   3  -3  159.42   25.01   0
  -6   5  -2   55.99   27.69   0
  -5   3  -3 1359.92   39.45   0
  -5   8   0  458.00   40.64   0
  -4  -4  -3  219.51   26.15   0
   1   0   2  469.57   32.08   0
  -9  -5  -3  150.41   30.82   0
  -7  -3  -4  986.93   33.52   0
  -7  -2  -4  580.95   29.29   0
  -7  -1  -4   -0.99   21.66   0
  -6  -2  -4  509.80   25.89   0
  -6  -1  -4 1196.84   35.56   0
  -5   5  -2  525.03   33.62   0
  -4   9   1  595.89   49.66   0
  -3  -1  -3 5400.65   82.89   0
  -3   0  -3 1070.51   40.02   0
  -3   6  -1 1586.41   53.01   0
  -2  -2  -2  940.27   47.88   0
  -7  -7  -2   32.85   30.93   0
  -7   6  -1  359.68   33.21   0
  -5   9   1   13.10   38.17   0
  -4   2  -3 1392.50   40.63   0
  -2   5  -1 1607.91   56.76   0
  -9  -4  -3  420.90   31.37   0
  -7   2  -3  441.06   28.80   0
  -5  -7  -1 1216.94   56.24   0
  -1   3  -1 8572.84  141.01   0
 -10  -5  -2   20.06   28.16   0
  -9  -1  -3  478.18   32.73   0
  -8  -5  -3  569.63   33.70   0
  -8   1  -3  470.73   29.77   0
  -7   7   0   49.60   32.85   0
  -1  -5   2 1357.00   67.34   0
  -9  -6  -2  356.04   32.63   0
  -9  -2  -3    9.96   21.22   0
  -6   2  -3  340.25   26.30   0
  -6   6  -1  174.53   29.67   0
  -5  -6  -2 1544.22   51.52   0
  -5   2  -3  732.46   31.84   0
  -4   6  -1  103.33   30.07   0
 -10  -4  -2  351.95   34.69   0
  -9  -7  -1  359.59   37.90   0
  -8   3  -2  379.73   29.13   0
  -7  -5  -3  306.89   28.10   0
  -5   6  -1  404.06   33.75   0
  -4  -3  -3 2327.98   52.64   0
  -4   1  -3 2804.03   54.45   0
  -2   8   1  454.50   47.11   0
 -10  -6  -1   63.42   32.92   0
  -8   0  -3  110.21   25.77   0
  -7   1  -3   19.77   22.75   0
  -4  -5  -2  335.27   33.06   0
  -3   7   0    4.22   30.16   0
  -2   1  -2   62.47   20.30   0
  -8  -6  -2  499.76   35.30   0
  -8  -1  -3  151.21   23.86   0
  -6   7   0  516.30   36.28   0
  -3   3  -2  379.01   28.16   0
  -9  -5  -2  521.76   34.51   0
  -8  -3  -3  297.13   24.75   0
  -8  -2  -3  412.62   26.53   0
  -7   5  -1    4.60   26.20   0
  -6   1  -3 1560.28   40.55   0
  -5   1  -3    7.09   19.61   0
  -4  -2  -3 3162.72   58.81   0
  -2   0  -2  634.06   37.16   0
  -1   7   1  624.93   55.38   0
  -8  -7  -1   97.65   33.48   0
  -8   2  -2  211.11   24.40   0
  -7  -6  -2  390.28   32.84   0
  -7   0  -3  811.76   34.10   0
  -7   3  -2   11.95   20.54   0
  -6  -7  -1  115.79   32.61   0
  -6  -6  -2  281.05   30.08   0
  -6   8   1  183.02   33.69   0
  -5   7   0   56.15   29.98   0
  -4  -1  -3 1117.80   36.84   0
  -1   2  -1   35.51   25.28   0
 -10  -5  -1  380.84   35.69   0
  -9   0  -2   29.42   26.59   0
  -7  -3  -3  582.54   29.25   0
  -5  -3  -3  451.93   26.62   0
  -3   5  -1  188.77   29.12   0
  -9  -6  -1  272.31   31.76   0
  -9  -4  -2  102.13   26.62   0
  -7  -7  -1  994.06   45.96   0
  -7  -2  -3  101.08   22.12   0
  -7  -1  -3 1102.62   34.95   0
  -6   0  -3 1006.67   33.56   0
  -6   9   2   13.09   38.23   0
  -5   0  -3 1301.87   36.96   0
   1  -1   2 5551.36   95.15   0
 -10  -6   0  297.92   36.24   0
 -10  -4  -1  231.53   32.70   0
  -9  -7   0  133.08   33.90   0
  -9  -2  -2  461.90   28.46   0
  -9  -1  -2  226.53   25.96   0
  -8  -5  -2   27.75   24.73   0
  -7   6   0  343.31   32.43   0
  -6  -1  -3   30.69   18.73   0
  -6   3  -2 1121.61   35.38   0
  -5  -2  -3   18.70   17.69   0
  -5  -1  -3 2014.30   43.78   0
  -5   8   1  380.52   37.32   0
  -4   3  -2 1908.68   46.31   0
  -8   1  -2   90.61   25.50   0
  -8   5   0   -8.12   27.25   0
  -7   2  -2  493.77   30.10   0
  -6  -2  -3 1934.14   41.68   0
  -5   3  -2   12.05   19.10   0
  -5   5  -1    5.59   26.54   0
  -4   5  -1 1506.95   44.94   0
  -3   2  -2 1518.31   46.10   0
  -3   7   5   19.66   18.69   0
  -3   8   6  532.55   27.58   0
  -3   9   7 1337.89   38.76   0
  -3  10   7  233.32   25.13   0
  -2   5  -2  189.82   24.93   0
  -2  10  -1   49.22   31.78   0
  -2  13   2   83.17   32.17   0
  -1   9  13    7.17   33.33   0
  -3   7   3 1323.23   34.40   0
  -3   7   4  512.24   26.33   0
  -3   8   3  421.48   24.59   0
  -3   9   6  210.92   24.39   0
  -3  10   5   -3.40   19.14   0
  -3  10   6  780.04   29.29   0
  -2   3   3 3993.26   69.31   0
  -2   7  -2  685.90   37.22   0
  -2  11   0  288.65   35.60   0
  -2  12   1  442.78   39.16   0
   0   2   7    6.61   31.01   0
   0   4  10  368.66   40.66   0
   0   7  13   47.42   38.62   0
   1   7  14   95.68   44.49   0
  -3   8   4  166.12   21.26   0
  -3   8   5 1000.30   32.71   0
  -3   9   4  719.65   28.91   0
  -3   9   5  873.33   30.59   0
  -2   3   1 1906.12   51.11   0
  -2   3   2 2423.85   55.16   0
  -2   6  -2 1847.73   49.83   0
  -2   8  10   16.71   21.01   0
  -2  10  11   11.40   25.45   0
   1   4  11  689.02   54.83   0
  -2   5   7  450.13   26.33   0
  -2  11  11  309.69   28.45   0
  -1   8  12  655.52   38.03   0
  -1  10  13  587.58   41.12   0
   0   6  12  249.52   39.51   0
   0  11  15    7.48   37.42   0
   1   6  13  139.96   43.52   0
  -2   6   8 2827.66   51.98   0
  -2   9  -1  236.25   31.64   0
  -2  13   3  487.78   34.93   0
  -1   7  -4  719.23   46.99   0
   0   9  14   65.71   35.23   0
   1   5  12  994.49   58.00   0
  -1  11  13  573.63   40.05   0
   2   2   9  611.66   88.71   0
  -2  10   0  655.56   36.19   0
  -2  10  10  694.01   31.12   0
  -2  11   1  220.42   29.26   0
  -2  12   2   58.97   26.78   0
  -2  12  10  106.50   28.25   0
  -2  13   4    1.99   28.29   0
  -1   7  11  948.37   41.40   0
   1   9  15    8.41   43.78   0
  -2   8   9 1125.84   35.51   0
  -2  11  10   50.53   23.66   0
  -1   5  -4  343.51   38.71   0
  -1   6  -4  415.81   38.88   0
  -1   6  10   45.38   23.95   0
  -2   4   0 2873.32   59.47   0
  -2   4   4 1456.17   41.47   0
  -2   5   6 1587.01   41.45   0
  -2  12   9  173.68   28.11   0
  -1   2  -2 3003.19   95.82   0
  -1   9  -3  678.17   43.40   0
   0   8  13  502.99   42.21   0
   1   3  -7  102.82   55.42   0
  -2   6  -1  280.54   26.41   0
  -2   6   7  539.37   27.20   0
  -2   7  -1  503.86   30.92   0
  -2   7   8  118.01   23.05   0
  -2   9   9   85.53   22.43   0
  -2   9   0  524.84   30.82   0
  -2  10   9  273.17   26.92   0
  -2  11   2  508.63   32.46   0
  -2  11   9  873.48   35.06   0
  -1   3   6 1454.79   48.68   0
   1   2   8  147.47   44.22   0
  -2   4   1   33.68   16.58   0
  -2   4   3   39.40   15.48   0
  -2  10   1  114.91   24.57   0
  -1  12  12  632.92   40.83   0
   0  11  14  463.20   40.11   0
   1   8  14  162.50   43.14   0
   1  10  15  161.93   45.59   0
  -2   4   2 3865.29   64.41   0
  -2   5   5   69.96   17.58   0
  -2   8   8  710.31   31.38   0
  -2  11   8   96.60   24.17   0
  -2  12   6  457.82   29.13   0
  -2  12   7   19.64   21.21   0
  -1  10  -2  173.74   35.14   0
  -1  13   1  417.15   41.72   0
   0   3   8 1734.89   61.32   0
   0   7  12 1030.63   46.50   0
  -2   6   6  562.51   27.01   0
  -2   7   7 1338.50   36.16   0
  -2   8   0  187.61   24.42   0
  -2   9   8 1290.45   37.27   0
  -2  10   8  360.56   28.71   0
  -2  11   3   11.63   24.54   0
  -1  12   0  550.38   41.46   0
  -2   9   1  927.79   34.80   0
  -2  10   2  390.70   28.72   0
  -2  11   7  576.88   29.03   0
  -1   4   7   25.90   18.79   0
  -1   8  -3  176.32   32.07   0
  -1  11  -1   77.77   33.00   0
   1   1  -6  807.78   50.13   0
  -2   7   0 1721.61   42.86   0
  -2   8   7  880.64   31.73   0
  -2  11   5  211.54   24.42   0
  -2  11   6  416.91   25.14   0
   0   6  11  555.56   37.03   0
   1   7  13  916.28   51.43   0
   1  11  15  321.44   42.03   0
  -2   5   1 2372.79   49.41   0
  -2   9   7   67.91   23.28   0
  -1   2   3  276.87   27.03   0
  -1  10  11  701.11   34.11   0
  -1  11  11  186.35   24.55   0
  -1  12  11  173.65   28.24   0
  -1  13   2  295.12   32.64   0
   0   5  10   36.56   28.65   0
  -2   5   2  762.73   30.37   0
  -2   5   3  789.30   30.26   0
  -2   8   1  508.19   28.33   0
  -2  10   6   10.97   21.34   0
   0  10  13   53.34   30.39   0
  -2   6   1 1686.86   41.62   0
  -2   8   6  525.16   26.76   0
  -2   9   6  714.59   29.76   0
  -2  10   4  104.88   21.26   0
  -2  10   5  902.20   31.43   0
  -1   3   5    5.71   17.90   0
   0   8  12  218.97   32.02   0
   0  11  13  268.12   34.49   0
   1  -1  -2   10.28   15.34   0
   2   6  13  441.52   52.73   0
  -2   6   4  475.94   25.73   0
  -2   7   5 1445.72   36.58   0
  -2   9   5  316.92   24.47   0
  -1   7  -3  297.58   32.37   0
  -1   9  -2   41.73   27.99   0
  -1  12   1    8.44   24.43   0
  -1  12  10  288.49   30.90   0
   0  12  13  690.32   38.65   0
   1   6  12  626.22   47.65   0
  -2   6   2   94.37   17.63   0
  -2   6   3 5127.34   66.99   0
  -2   7   2  793.75   29.67   0
  -2   8   5  407.08   24.66   0
  -2   9   4  172.35   21.00   0
  -1   2  -1   45.63   22.40   0
  -1   4  -3   15.32   24.73   0
  -1   9  10  110.84   22.29   0
  -1  10  -1  595.47   38.14   0
  -1  11   0  294.87   32.98   0
  -1  13   3   73.50   26.89   0
  -1  13   9  394.72   33.22   0
   0   1   4 1978.17   87.16   0
   1   3   9  972.26   59.62   0
  -2   7   3  951.97   30.91   0
  -2   7   4  880.41   30.78   0
  -2   8   3  580.17   26.27   0
  -2   8   4 1102.79   33.09   0
  -1   2   2 4022.45   86.89   0
  -1   7   9  786.82   31.54   0
  -1  10  10   55.88   21.59   0
  -1  11  10  622.75   30.72   0
   1   5  11  313.14   41.48   0
   1  10  14  171.23   35.66   0
   2   3  10 1523.98   84.46   0
  -1  12   9  445.74   32.66   0
  -1  13   8  153.57   26.79   0
   0   7  11   33.24   29.15   0
   0   9  12  169.30   28.65   0
   1   8  13  433.61   42.61   0
   2   5  12    1.52   42.66   0
  -1   4   6 2948.67   59.02   0
  -1   5  -3  469.55   35.75   0
  -1   6   8  138.90   20.77   0
  -1  12   2  301.31   28.20   0
  -1  13   5   13.86   25.22   0
  -1  13   7  182.58   25.34   0
   1  -1  -3 3826.44   79.58   0
   1   1   6 1935.18  112.00   0
   1  11  14   -1.22   32.36   0
   2   4  11  415.74   55.10   0
   2  10  15  421.30   50.92   0
  -1   2   0 2404.27   73.42   0
  -1   2   1  325.43   30.42   0
  -1   5   7 2797.92   54.72   0
  -1   8  -2  842.53   39.91   0
  -1   8   9   63.11   21.38   0
  -1  11   9   34.89   22.49   0
   0  10  12  613.25   35.42   0
   1  12  14  374.74   39.61   0
  -1   9   9  595.23   29.71   0
  -1  11   1  349.91   29.97   0
  -1  12   3  117.41   26.78   0
  -1  12   8  169.12   24.69   0
   0   6  10  610.90   35.45   0
  -1   3   4 9563.09  113.63   0
  -1   9  -1  586.23   33.90   0
  -1  10   0    0.05   24.89   0
   2  11  15    2.39   40.15   0
  -1   7   8 1607.19   40.50   0
  -1  11   8  841.50   34.29   0
  -1  12   4  327.20   27.26   0
  -1  12   6   28.76   20.91   0
  -1  12   7  495.43   27.59   0
   0   5   9 1949.25   55.62   0
   0   8  11 1000.89   39.51   0
   1   9  13   12.65   30.90   0
  -1   7  -2  847.88   37.98   0
  -1  11   2   92.29   24.59   0
   1   7  12    4.47   30.62   0
  -1   4   5 2845.43   58.66   0
  -1   6   7 1959.05   44.18   0
  -1   8   8 1305.03   37.61   0
  -1  10   8  878.34   32.42   0
   0  12  11  559.87   30.34   0
   0  13   1   74.38   32.66   0
  -1   5   6  992.88   34.23   0
  -1   9   8    1.86   20.24   0
  -1  10   1  590.63   30.38   0
  -1  11   7  281.05   25.04   0
   0   8  -4  289.14   37.09   0
   0  11  11  571.37   31.95   0
   1  -1  -4  124.65   23.05   0
   2   7  13   18.84   39.29   0
   2   9  14    2.97   40.14   0
  -1   8  -1   38.45   22.70   0
  -1   9   0  597.58   31.64   0
  -1  11   6  498.67   27.05   0
   0  13  10  557.57   33.15   0
   1  11  13  482.79   36.04   0
   1  12  13   45.31   29.87   0
  -1   3   3 2508.56   60.27   0
  -1   6  -2    1.72   20.95   0
  -1   7   7   82.76   18.83   0
  -1  10   7  106.74   21.91   0
  -1  11   5  591.93   27.03   0
   0  12   0   53.05   30.92   0
   1   6  11  763.19   41.65   0
  -1   5  -2 1165.00   44.50   0
  -1   8   7  790.31   29.37   0
  -1   9   7 1043.35   33.45   0
  -1  10   2  276.28   27.01   0
   0  12  10  261.75   26.69   0
   0  13   2  392.65   31.94   0
   0  13   9   28.29   28.04   0
   1   8  12 1002.39   42.85   0
  -1  10   6  735.10   29.94   0
   0   5  -5  283.72   41.98   0
   0   9  -3    1.95   29.47   0
   0  11  -1  592.30   38.84   0
  -1   4   4  441.07   27.17   0
  -1   6   6 1229.31   36.15   0
  -1   7  -1 1252.84   40.67   0
  -1   9   1  162.05   24.95   0
  -1  10   5   33.64   19.43   0
   0   2   5  470.96   40.21   0
   0  10  -2  515.03   38.93   0
   0  11  10   25.03   21.13   0
   0  13   3  322.18   30.80   0
   2  11  14  378.11   37.18   0
   2  12  14   56.79   34.25   0
  -1   3   2 2519.18   61.32   0
  -1   5   5 3075.59   55.90   0
  -1   8   0 1926.36   45.40   0
  -1   9   6  234.61   22.87   0
  -1  10   4 1621.46   38.06   0
   0   9  10  749.46   30.89   0
   0  10  10  660.93   30.17   0
   0  12   1  395.24   29.91   0
   2   6  12  917.60   53.47   0
  -1   3   0 2588.06   66.24   0
  -1   7   6 1886.45   41.60   0
  -1   8   6  154.41   19.51   0
   0  12   9  405.66   28.72   0
   0  13   4    3.44   26.19   0
   0  13   7  377.70   25.61   0
   2   8  13  437.76   43.83   0
   3  11  15  495.31   49.51   0
  -1   3   1 4102.85   79.44   0
  -1   6  -1 2100.94   51.44   0
  -1   9   5  166.35   21.92   0
   0   7  -4   16.44   28.02   0
   0  13   6   25.55   23.58   0
   1   2   7 2328.96   87.59   0
   1  10  12   29.91   25.43   0
  -1   6   5  713.90   28.62   0
  -1   9   3   17.38   17.71   0
  -1   9   4 1266.53   35.05   0
   0  11   0  187.98   30.28   0
   0  11   9  968.81   34.05   0
   1   4   9  306.98   35.64   0
   1   7  11  519.60   36.45   0
  -1   4   3 2001.84   49.75   0
  -1   5   4  564.95   28.20   0
  -1   7   5  646.49   27.25   0
  -1   8   5 2695.33   46.70   0
   0   1   3   83.40   29.37   0
   0   3   6  514.14   35.72   0
   0  12   2   20.37   25.35   0
   1  13   0   14.30   34.68   0
   1  13  11  269.23   28.76   0
  -1   8   2  690.05   28.63   0
  -1   8   4   27.70   16.61   0
   0   8   9 1269.52   37.82   0
   0  10   9  423.46   27.52   0
   1   3   8  489.08   41.65   0
   2   5  11 1150.02   57.01   0
   2   9  13  912.33   44.56   0
   3   5  12  844.83   61.03   0
  -1   8   3 1863.38   40.25   0
   0   9   9  316.31   24.68   0
   0  10  -1   37.05   27.24   0
   0  12   3  592.78   29.98   0
   0  12   7   81.23   22.33   0
   1  12  11  146.41   23.69   0
   3   9  14  500.07   46.49   0
  -1   4   0  881.19   38.21   0
  -1   4   2   57.25   17.06   0
  -1   6   4 1912.92   41.83   0
   0   6   8 1584.95   42.89   0
   0   9  -2  384.76   34.16   0
   0  11   8   45.54   22.57   0
   0  12   5  110.31   23.33   0
   0  12   6  653.35   28.00   0
   1   8  11   35.56   26.43   0
   1  14   3  524.73   34.39   0
   2  10  13  214.45   33.54   0
   2  11  13   94.34   31.80   0
   2  12  13  450.04   35.72   0
  -1   4   1 2245.29   54.80   0
  -1   5   0 2429.66   54.77   0
  -1   5   3 1239.39   37.84   0
  -1   7   2   92.18   17.09   0
  -1   7   3 1509.43   37.87   0
   0  11   1  236.02   27.18   0
   1   6  10  303.96   32.79   0
   1   9  11  695.21   36.17   0
   1  12  -1  252.52   36.93   0
   1  13  10   31.62   24.63   0
   2   7  12  765.17   47.54   0
  -1   5   2 1138.81   37.51   0
  -1   6   1 1217.81   36.71   0
  -1   6   3   22.94   15.56   0
   0  10   8  751.13   30.89   0
   0  11   7  622.99   28.79   0
   1  13   1  282.01   30.66   0
   1  14   4  149.06   29.62   0
   3   7  13  474.00   48.36   0
   3  10  14  268.04   41.77   0
  -1   5   1   23.56   15.36   0
  -1   6   2 1697.44   40.84   0
   0   7   8  144.77   20.54   0
   0  11   2  395.36   27.99   0
   1  14   5  281.57   30.95   0
   1  14   7  166.50   25.53   0
   3  11  14   58.99   34.80   0
   3  12  14  349.48   38.78   0
   0   5   7  108.08   20.24   0
   0   8   8  228.90   22.14   0
   0   9   8 1054.73   34.45   0
   0  10   0  803.27   34.27   0
   0  11   6  415.06   25.86   0
   1  11  -2  699.21   42.16   0
   1  12  10  332.90   27.66   0
   1  13   9  549.88   32.48   0
   1  -2  -2 4109.67   77.60   0
   1  13   2  208.12   30.22   0
   2   8  12   89.19   31.44   0
   0  10   7 1125.03   35.12   0
   0  11   4  935.42   32.11   0
   0  11   5   90.74   19.73   0
   1   7  10  535.78   32.44   0
   1  13   8  219.52   26.04   0
   1  -2  -1  336.35   27.95   0
   2   7  -5  811.34   32.23   0
   3  -5 -12  648.13   46.89   0
   3   5  -6  145.12   23.08   0
  -2   9  -1  219.91   34.65   0
  -1   6   1 1157.22   53.96   0
   3  -3  -8  332.77   33.04   0
   3   1  -5 1803.30   45.21   0
   3   5  -9  150.41   31.10   0
   3   5  -7  898.62   37.59   0
  -1  -2   0 6114.27  110.41   0
  -1   9  -2   39.87   29.62   0
   1   8  -4  277.49   28.17   0
   2   7  -7  433.31   30.00   0
   2   7  -6  350.90   26.68   0
   3   2  -5 1118.15   35.53   0
   3   3  -5  191.73   20.01   0
   3   5  -8  222.38   28.27   0
  -2   7   1   20.68   32.08   0
   0   9  -5  184.07   32.51   0
   2  -4  -6  197.24   38.61   0
   2   0  -3 3703.48   79.88   0
   3  -4 -10  576.33   41.91   0
   3   4 -11  441.03   38.56   0
   3   4  -6  428.09   27.58   0
   0   8  -2   34.77   23.81   0
   0   9  -6  114.91   32.75   0
   1   5  -1   86.95   17.77   0
   1   8  -5  506.36   32.38   0
   3   4 -10  117.81   27.95   0
  -2   8   0  178.37   32.69   0
   0  -6  -4   28.31   30.42   0
   3  -4 -14   12.91   38.29   0
   3  -3 -15    9.26   40.00   0
   3   0  -6 2379.72   52.86   0
   3   3  -6 1399.97   38.51   0
   3   4  -9  963.25   38.01   0
   3   4  -8   13.36   23.68   0
   3   4  -7 1233.37   37.13   0
  -1   9  -3  679.87   39.81   0
   0   7  -1  502.64   30.61   0
   1   1  -1 1272.97   59.15   0
   2   6  -5  630.13   31.25   0
   3  -4 -13  695.52   49.33   0
   3  -4 -11  983.27   49.49   0
  -1   8  -1   53.35   25.94   0
   1   6  -2   19.70   17.66   0
   2  -6  -9    3.57   40.32   0
   2   6  -9  467.94   37.27   0
   3  -4 -12   20.43   35.54   0
   3  -3  -9 1490.17   50.50   0
   3   1  -6   19.27   17.76   0
   3   2  -6  375.13   25.13   0
   3   3 -11  534.58   31.48   0
   3   3  -7   91.68   23.24   0
  -2   9  -2  835.77   41.85   0
  -1   0   1 7125.23  148.32   0
  -1   7   0  217.94   28.39   0
   0   8  -3  425.31   31.60   0
   1   4  -1  367.61   26.25   0
   2   5  -4 1117.09   34.67   0
   2   6  -8   37.19   25.52   0
   2   6  -7  778.62   35.06   0
   2   6  -6   79.81   22.23   0
   3  -2  -8  165.20   28.27   0
   3  -1 -14   14.01   37.60   0
   3   1 -13    9.63   34.64   0
  -1   9  -4   22.75   28.96   0
   2   3  -3 1133.50   37.79   0
   3  -2 -14  232.28   37.45   0
   3   3  -9  449.46   31.41   0
   3   3  -8  579.01   30.37   0
  -4   4   3   10.36   35.18   0
  -1   9  -6  233.53   34.55   0
  -1   9  -5  553.25   35.82   0
   2   2  -3  122.90   19.89   0
   3  -3 -13  239.84   37.40   0
   3  -3 -10  137.67   29.22   0
   3   0 -13  277.58   38.49   0
   3   1  -7 2032.41   47.11   0
   3   2 -11  101.63   29.01   0
   3   2  -7  473.82   28.43   0
   0   8  -4  326.60   30.60   0
   1   2  -1 4033.02   87.58   0
   1   3  -1 4006.39   78.42   0
   2   5 -10   -3.84   32.37   0
   2   5  -5   60.46   19.52   0
   3  -3 -12  293.15   37.46   0
   3  -3 -11 1113.76   47.61   0
   3  -2 -13   30.65   32.92   0
   3  -1 -13  381.83   38.42   0
   3   2 -10  900.56   35.97   0
   3   2  -9   21.17   22.15   0
   3   2  -8  761.13   33.50   0
  -3   8   0  677.61   48.54   0
  -2   9  -3    7.69   31.61   0
   0   8  -7   56.19   32.69   0
   0   8  -6  884.88   41.86   0
   0   8  -5  134.58   28.65   0
   2   4  -4   46.21   18.14   0
   2   5  -9  513.00   34.45   0
   3  -2  -9  569.82   35.47   0
   3   0 -12  141.65   31.88   0
  -1   5   1   26.30   26.08   0
  -1   8  -2  893.83   38.76   0
   0   7  -2  478.11   29.48   0
   1   5  -2 1313.45   39.76   0
   1   6  -3 1816.89   42.86   0
   2   5  -8  421.57   32.01   0
   2   5  -6 1271.82   39.52   0
   3  -2 -12  483.85   38.09   0
   3  -2 -11  143.08   29.87   0
   3  -2 -10  834.04   40.39   0
   3  -1 -12  124.30   30.78   0
   3   1  -9 1354.14   40.14   0
   3   1  -8    9.58   19.92   0
  -2   9  -6  357.68   44.18   0
  -2   9  -5  110.02   38.62   0
  -2   9  -4  732.15   42.42   0
   2   5  -7  270.73   27.49   0
   3  -1 -11  542.21   36.63   0
   3  -1 -10  789.45   39.77   0
   3  -1  -9   22.47   22.92   0
   3   0 -11  962.76   40.00   0
  -3   7   1 1813.08   78.15   0
   1   6  -9   75.16   27.89   0
   1   6  -4  296.98   25.15   0
   2  -5  -8  766.92   53.62   0
   2   3 -12  583.03   42.32   0
   2   3  -4 1656.17   42.19   0
   2   4 -10  531.31   36.19   0
   2   4  -5 1704.36   41.64   0
  -1   8  -3  207.21   29.14   0
   0   7  -3 1136.74   38.46   0
  -2   0   2 1217.00   46.38   0
  -1   8  -7  384.19   39.32   0
   0   4   0 3610.00   82.21   0
   1   6  -5  314.67   26.98   0
   2   0  -4  986.82   40.17   0
   2   2  -4 4029.56   66.91   0
   2   4  -9   -1.68   27.23   0
   2   4  -6 1949.01   44.36   0
  -1   7  -1 1311.75   44.88   0
  -1   8  -4  595.14   33.89   0
   1  -1  -2    9.06   23.05   0
   1   4  -2 2438.70   54.23   0
   1   6  -7    6.83   22.87   0
   1   6  -6  512.31   29.93   0
   2   1  -4 1087.10   39.41   0
   2   3 -11   81.30   28.12   0
   2   4  -8 1276.20   41.68   0
   2   4  -7   98.15   23.90   0
  -3   3   3  159.65   32.64   0
  -1   6   0  535.55   35.81   0
  -1   8  -6   57.13   30.67   0
  -1   8  -5  639.30   38.38   0
   2   2 -12  176.57   29.44   0
   2   3  -5 1462.56   39.52   0
  -2   6   1 1715.70   68.55   0
  -2   7   0 1699.87   58.18   0
  -2   8  -2  215.29   33.33   0
  -1  -3   0   30.45   19.17   0
   2  -6 -13  447.08   43.95   0
   2  -4  -7 1740.27   65.61   0
   2  -3  -6 1102.05   52.52   0
   2  -2 -15  153.10   41.13   0
   2   3 -10  363.94   31.78   0
  -3   8  -1    9.59   31.41   0
   2  -6 -12  400.85   44.64   0
   2  -4 -15  131.96   42.36   0
   2   3  -9  376.42   31.63   0
   1   5  -9  171.24   29.94   0
   2  -5 -14  453.18   45.14   0
   2   2 -11  406.62   31.38   0
   2   3  -8  239.72   26.58   0
   2   3  -6    9.29   19.01   0
  -2   8  -7    0.09   34.62   0
   0   5  -1 2982.09   63.50   0
   1   5  -4  372.09   25.08   0
   2  -5  -9 1088.52   56.00   0
   2   1 -12   64.71   30.30   0
   2   2  -5   27.86   17.24   0
   2   3  -7 1451.29   40.32   0
  -2   8  -3  459.29   37.36   0
  -1   7  -2  850.05   37.25   0
   0   3   0 4078.79   98.24   0
   0   6  -9  639.28   41.58   0
   1   3  -2 1731.59   48.57   0
   1   5  -8  431.35   31.80   0
   2  -4 -14  490.59   43.62   0
   2  -1  -5 1546.45   50.88   0
   2   2 -10   42.52   25.10   0
  -2   8  -6  492.75   39.07   0
  -2   8  -5  207.63   33.43   0
  -2   8  -4  360.26   35.56   0
  -1  -1   1 1413.57   55.01   0
  -1   7  -8  161.63   36.23   0
   1   4  -3  309.85   23.54   0
   1   5  -7  706.36   34.11   0
   1   5  -6   39.09   22.55   0
   1   5  -5 1419.04   39.39   0
   2  -5 -13  566.24   46.46   0
   2  -3 -14   79.70   34.06   0
   2   1  -5 1321.62   40.59   0
   0   6  -8   21.95   29.08   0
   1   3 -12   25.90   35.03   0
   1   4 -10   81.78   30.12   0
   2  -1 -13  239.84   34.36   0
   2   0  -5 3782.22   69.24   0
   2   1 -11  327.08   29.27   0
   2   2  -9  811.68   35.34   0
  -3   8  -7  479.22   47.48   0
  -3   8  -2  572.72   39.60   0
  -1   7  -7  134.77   33.60   0
  -1   7  -3  324.82   29.39   0
   2  -5 -12  132.48   36.92   0
   2  -5 -10  155.42   35.50   0
   2  -4 -13   20.67   35.50   0
   2  -2 -13  721.05   43.64   0
   2   2  -8  354.08   28.96   0
   2   2  -7  703.82   30.87   0
   0   6  -7  856.92   37.89   0
   1   2  -2   17.92   16.16   0
   2  -5 -11  970.90   50.41   0
   2  -4  -8   15.06   27.81   0
   2  -3 -13  317.69   37.21   0
   2   1 -10  520.14   31.09   0
  -3   8  -6   31.71   42.34   0
  -3   8  -3  148.02   36.32   0
  -2   7  -1  504.88   36.66   0
  -1   7  -5   -7.76   26.83   0
  -1   7  -4  798.18   37.87   0
   1   0  -2 2853.15   88.24   0
   1   3 -11  558.72   38.16   0
   1   4  -9  487.45   34.44   0
   1   4  -4 1939.09   45.37   0
   2  -3  -7  701.85   40.92   0
   2  -1 -12  628.17   37.31   0
   2   1  -6 2373.07   50.81   0
  -3   8  -5  379.95   42.18   0
  -3   8  -4  232.31   39.59   0
   1   1  -2  173.58   23.72   0
   2  -4 -12 1151.98   49.52   0
   2  -2 -12   -0.29   29.15   0
   2  -1  -6  758.53   36.41   0
   2   0  -6  871.03   35.11   0
   2   1  -9   77.83   22.63   0
   2   1  -8 1105.26   37.74   0
   2   1  -7  252.63   23.25   0
  -3   7   0    4.71   28.64   0
  -2   7  -8  442.54   41.37   0
   0   2   0 2411.73   93.81   0
   0   5  -2 1768.74   46.89   0
   1   2 -12  352.64   35.10   0
   1   4  -8  186.61   27.00   0
   2  -4  -9  583.77   40.30   0
   2  -3 -12  715.64   39.48   0
   2   0 -10 1166.99   38.60   0
   0   4  -1 1501.19   49.74   0
   0   5  -9  371.56   31.23   0
   1  -4 -16  302.53   47.32   0
   1   1 -13   15.10   30.53   0
   1   3 -10  225.22   32.31   0
   1   3  -3 1234.32   40.15   0
   1   4  -7  989.00   36.45   0
   2  -4 -11  435.40   37.58   0
   2  -4 -10  782.15   41.34   0
   0   4 -11  160.53   35.42   0
   1  -5 -16    0.49   44.57   0
   2  -3 -11  386.46   33.17   0
   2  -3  -8  759.43   40.06   0
   2  -2 -11  866.32   40.36   0
   2   0  -9  678.02   31.46   0
   2   0  -8  719.83   32.76   0
   2   0  -7 1183.17   38.16   0
  -2   7  -2  716.83   37.21   0
   0   5  -8  405.82   30.80   0
   1  -2 -15  259.25   41.62   0
   0   3 -12  563.54   47.79   0
   0   5  -3  886.42   34.24   0
   1   2 -11  100.18   27.69   0
   1   3  -9  337.83   31.40   0
   2  -3  -9   83.01   25.09   0
   2  -2 -10  375.90   31.34   0
  -2   7  -6   25.80   31.39   0
  -1   6  -2    2.04   20.00   0
   0   4 -10  630.62   36.62   0
   0   5  -7  200.38   27.45   0
   1  -3 -15   18.61   37.36   0
   1  -1 -14   14.35   34.13   0
   1   1 -12  533.42   34.20   0
   2  -2  -9  158.20   26.31   0
  -2   7  -5  879.13   39.52   0
  -2   7  -3  694.74   36.93   0
  -1  -2   1 4019.82   78.37   0
   1  -6 -15    6.11   40.48   0
   1   3  -8 1547.00   43.42   0
  -2   6  -9  567.57   45.15   0
  -2   7  -4   30.98   25.97   0
   0   5  -6 1105.52   37.29   0
   0   5  -5  323.04   25.01   0
   0   5  -4 2790.43   53.11   0
   1  -4 -15  244.61   38.17   0
   1   2 -10  718.61   36.39   0
   1   2  -3 5180.07   81.36   0
   1   3  -7   95.29   20.71   0
   1   3  -5  652.44   29.80   0
   1  -2 -14  653.87   43.64   0
   1   3  -6 2405.68   49.36   0
;
loop_
_space_group_symop_operation_xyz
'x, y, z'
'-x, -y, -z'
loop_
_atom_site_label
_atom_site_type_symbol
_atom_site_fract_x
_atom_site_fract_y
_atom_site_fract_z
_atom_site_U_iso_or_equiv
_atom_site_adp_type
_atom_site_occupancy
_atom_site_site_symmetry_order
_atom_site_calc_flag
_atom_site_refinement_flags_posn
_atom_site_refinement_flags_adp
_atom_site_refinement_flags_occupancy
_atom_site_disorder_assembly
_atom_site_disorder_group
Er Er 0.24376(2) 0.34916(2) 0.29471(2) 0.01301(4) Uani 1 1 d . . . . .
N1 N 0.4680(3) 0.2812(2) 0.55523(19) 0.0173(3) Uani 1 1 d . . . . .
O1 O 0.2944(3) 0.3817(2) 0.50813(18) 0.0233(3) Uani 1 1 d . . . . .
O2 O 0.5523(3) 0.21277(19) 0.47857(17) 0.0219(3) Uani 1 1 d . . . . .
O3 O 0.5474(3) 0.2555(2) 0.6665(2) 0.0319(4) Uani 1 1 d . . . . .
N2 N 0.5196(3) 0.2135(2) 0.1248(2) 0.0223(4) Uani 1 1 d . . . . .
O4 O 0.5009(3) 0.1406(2) 0.25847(18) 0.0275(4) Uani 1 1 d . . . . .
O5 O 0.4057(3) 0.35638(19) 0.06676(17) 0.0237(3) Uani 1 1 d . . . . .
O6 O 0.6372(4) 0.1552(3) 0.0564(2) 0.0393(5) Uani 1 1 d . . . . .
N3 N 0.0243(3) 0.6851(2) 0.1465(2) 0.0207(4) Uani 1 1 d . . . . .
O7 O 0.0612(3) 0.58090(19) 0.09570(18) 0.0232(3) Uani 1 1 d . . . . .
O8 O 0.1048(3) 0.6376(2) 0.26695(18) 0.0229(3) Uani 1 1 d . . . . .
O9 O -0.0811(3) 0.8196(2) 0.0812(2) 0.0372(5) Uani 1 1 d . . . . .
O10 O -0.0912(3) 0.3861(2) 0.3939(2) 0.0219(3) Uani 1 1 d . . . . .
H1 H -0.147(6) 0.456(5) 0.421(4) 0.040(10) Uiso 1 1 d . . . . .
H2 H -0.178(6) 0.387(5) 0.352(4) 0.042(10) Uiso 1 1 d . . . . .
O11 O 0.1964(3) 0.1000(2) 0.46836(18) 0.0220(3) Uani 1 1 d . . . . .
H3 H 0.134(6) 0.087(4) 0.544(4) 0.040(10) Uiso 1 1 d . . . . .
H4 H 0.272(6) 0.014(4) 0.476(4) 0.035(9) Uiso 1 1 d . . . . .
O12 O 0.0252(3) 0.2641(2) 0.19424(18) 0.0223(3) Uani 1 1 d . . . . .
H5 H 0.027(5) 0.162(4) 0.221(4) 0.036(9) Uiso 1 1 d . . . . .
H6 H 0.008(6) 0.312(5) 0.112(4) 0.047(11) Uiso 1 1 d . . . . .
O13 O 0.5142(3) 0.5014(2) 0.22275(18) 0.0203(3) Uani 1 1 d . . . . .
H7 H 0.539(6) 0.540(5) 0.141(4) 0.047(11) Uiso 1 1 d . . . . .
H8 H 0.496(5) 0.573(4) 0.243(4) 0.031(9) Uiso 1 1 d . . . . .
O14 O 0.0041(4) 0.9543(2) 0.2792(2) 0.0311(4) Uani 1 1 d . . . . .
H9 H 0.097(9) 0.890(7) 0.290(6) 0.083(18) Uiso 1 1 d . . . . .
H10 H -0.065(7) 0.958(5) 0.224(5) 0.048(12) Uiso 1 1 d . . . . .
loop_
_atom_site_aniso_label
_atom_site_aniso_U_11
_atom_site_aniso_U_22
_atom_site_aniso_U_33
_atom_site_aniso_U_23
_atom_site_aniso_U_13
_atom_site_aniso_U_12
Er 0.01399(5) 0.01281(5) 0.01213(5) -0.00557(3) -0.00060(3) -0.00224(3)
N1 0.0191(8) 0.0169(8) 0.0169(8) -0.0075(6) -0.0018(6) -0.0044(6)
O1 0.0210(7) 0.0250(8) 0.0237(8) -0.0142(7) -0.0063(6) 0.0052(6)
O2 0.0226(7) 0.0210(7) 0.0233(8) -0.0123(6) 0.0006(6) -0.0015(6)
O3 0.0363(10) 0.0363(10) 0.0263(9) -0.0174(8) -0.0146(7) -0.0005(8)
N2 0.0237(9) 0.0227(9) 0.0214(9) -0.0119(8) 0.0037(7) -0.0033(7)
O4 0.0327(9) 0.0255(8) 0.0180(7) -0.0084(6) 0.0015(7) 0.0025(7)
O5 0.0299(8) 0.0182(7) 0.0208(7) -0.0082(6) 0.0041(6) -0.0031(6)
O6 0.0456(11) 0.0366(10) 0.0328(10) -0.0209(9) 0.0131(9) 0.0031(9)
N3 0.0218(8) 0.0173(8) 0.0231(9) -0.0098(7) -0.0027(7) -0.0016(7)
O7 0.0343(9) 0.0153(7) 0.0198(7) -0.0085(6) -0.0081(6) -0.0001(6)
O8 0.0259(8) 0.0235(8) 0.0219(8) -0.0127(6) -0.0048(6) -0.0028(6)
O9 0.0459(12) 0.0183(8) 0.0387(11) -0.0106(8) -0.0143(9) 0.0103(8)
O10 0.0155(7) 0.0266(8) 0.0302(9) -0.0190(7) 0.0014(6) -0.0035(6)
O11 0.0256(8) 0.0155(7) 0.0188(8) -0.0036(6) 0.0019(6) -0.0021(6)
O12 0.0336(9) 0.0186(7) 0.0170(7) -0.0073(6) -0.0042(6) -0.0090(6)
O13 0.0235(8) 0.0196(7) 0.0184(8) -0.0084(6) 0.0021(6) -0.0061(6)
O14 0.0485(12) 0.0194(8) 0.0252(9) -0.0116(7) -0.0004(9) -0.0029(8)
loop_
_atom_type_symbol
_atom_type_description
_atom_type_scat_dispersion_real
_atom_type_scat_dispersion_imag
_atom_type_scat_source
Er Er -0.2586 4.9576 'International Tables Vol C Tables 4.2.6.8 and 6.1.1.4'
N N 0.0061 0.0033 'International Tables Vol C Tables 4.2.6.8 and 6.1.1.4'
O O 0.0106 0.0060 'International Tables Vol C Tables 4.2.6.8 and 6.1.1.4'
H H 0.0000 0.0000 'International Tables Vol C Tables 4.2.6.8 and 6.1.1.4'
loop_
_geom_angle_atom_site_label_1
_geom_angle_atom_site_label_2
_geom_angle_atom_site_label_3
_geom_angle
_geom_angle_site_symmetry_1
_geom_angle_site_symmetry_3
O12 Er O11 73.28(6) . .
O12 Er O10 72.61(6) . .
O11 Er O10 71.38(6) . .
O12 Er O7 71.94(6) . .
O11 Er O7 140.05(6) . .
O10 Er O7 79.96(6) . .
O12 Er O13 139.14(6) . .
O11 Er O13 137.95(6) . .
O10 Er O13 133.56(6) . .
O7 Er O13 81.98(6) . .
O12 Er O4 81.16(6) . .
O11 Er O4 71.81(6) . .
O10 Er O4 139.49(6) . .
O7 Er O4 120.65(6) . .
O13 Er O4 86.06(6) . .
O12 Er O1 142.58(6) . .
O11 Er O1 80.80(6) . .
O10 Er O1 73.80(6) . .
O7 Er O1 117.50(5) . .
O13 Er O1 77.48(6) . .
O4 Er O1 115.95(6) . .
O12 Er O5 72.68(6) . .
O11 Er O5 116.90(6) . .
O10 Er O5 139.46(6) . .
O7 Er O5 69.88(6) . .
O13 Er O5 69.00(6) . .
O4 Er O5 51.68(5) . .
O1 Er O5 144.45(6) . .
O12 Er O8 113.79(6) . .
O11 Er O8 132.70(6) . .
O10 Er O8 67.41(6) . .
O7 Er O8 51.15(5) . .
O13 Er O8 67.91(6) . .
O4 Er O8 153.06(6) . .
O1 Er O8 66.42(5) . .
O5 Er O8 109.40(5) . .
O12 Er O2 136.45(6) . .
O11 Er O2 69.68(6) . .
O10 Er O2 114.70(6) . .
O7 Er O2 149.75(6) . .
O13 Er O2 68.74(5) . .
O4 Er O2 66.24(6) . .
O1 Er O2 49.99(5) . .
O5 Er O2 104.79(5) . .
O8 Er O2 108.00(5) . .
O12 Er N2 75.46(6) . .
O11 Er N2 94.20(6) . .
O10 Er N2 147.56(6) . .
O7 Er N2 95.54(6) . .
O13 Er N2 76.43(6) . .
O4 Er N2 25.57(5) . .
O1 Er N2 133.92(5) . .
O5 Er N2 26.11(5) . .
O8 Er N2 133.10(6) . .
O2 Er N2 85.14(5) . .
O12 Er N3 92.29(6) . .
O11 Er N3 141.90(6) . .
O10 Er N3 70.67(6) . .
O7 Er N3 25.69(5) . .
O13 Er N3 74.64(6) . .
O4 Er N3 141.96(6) . .
O1 Er N3 91.81(5) . .
O5 Er N3 90.52(5) . .
O8 Er N3 25.52(5) . .
O2 Er N3 131.17(5) . .
N2 Er N3 116.54(6) . .
O12 Er N1 146.07(6) . .
O11 Er N1 72.91(6) . .
O10 Er N1 93.89(6) . .
O7 Er N1 137.60(5) . .
O13 Er N1 72.22(5) . .
O4 Er N1 91.02(6) . .
O1 Er N1 24.99(5) . .
O5 Er N1 126.64(5) . .
O8 Er N1 87.58(5) . .
O2 Er N1 25.02(5) . .
N2 Er N1 109.82(5) . .
N3 Er N1 112.87(5) . .
O3 N1 O2 122.66(19) . .
O3 N1 O1 121.91(19) . .
O2 N1 O1 115.43(17) . .
O3 N1 Er 175.63(16) . .
O2 N1 Er 61.18(10) . .
O1 N1 Er 54.34(10) . .
N1 O1 O2 32.03(10) . .
N1 O1 O3 28.37(10) . .
O2 O1 O3 60.40(8) . .
N1 O1 Er 100.67(12) . .
O2 O1 Er 68.70(6) . .
O3 O1 Er 129.00(9) . .
N1 O1 O8 142.28(14) . .
O2 O1 O8 117.00(9) . .
O3 O1 O8 152.44(11) . .
Er O1 O8 58.76(5) . .
N1 O1 O10 125.83(13) . 2_566
O2 O1 O10 155.87(9) . 2_566
O3 O1 O10 98.09(9) . 2_566
Er O1 O10 132.38(7) . 2_566
O8 O1 O10 76.40(7) . 2_566
N1 O1 O10 136.40(14) . .
O2 O1 O10 111.60(9) . .
O3 O1 O10 149.46(10) . .
Er O1 O10 51.68(5) . .
O8 O1 O10 58.04(6) . .
O10 O1 O10 92.48(7) 2_566 .
N1 O1 O13 85.17(12) . .
O2 O1 O13 63.56(7) . .
O3 O1 O13 104.80(9) . .
Er O1 O13 50.79(5) . .
O8 O1 O13 57.17(6) . .
O10 O1 O13 117.37(8) 2_566 .
O10 O1 O13 95.39(7) . .
N1 O1 O11 82.14(12) . .
O2 O1 O11 62.16(7) . .
O3 O1 O11 101.52(8) . .
Er O1 O11 47.97(4) . .
O8 O1 O11 100.00(7) . .
O10 O1 O11 138.52(8) 2_566 .
O10 O1 O11 54.26(6) . .
O13 O1 O11 92.35(6) . .
N1 O2 O1 32.54(10) . .
N1 O2 O3 28.23(10) . .
O1 O2 O3 60.77(8) . .
N1 O2 Er 93.79(12) . .
O1 O2 Er 61.31(6) . .
O3 O2 Er 121.99(8) . .
N1 O2 O4 146.54(14) . .
O1 O2 O4 114.72(9) . .
O3 O2 O4 170.73(10) . .
Er O2 O4 53.70(5) . .
N1 O2 O11 94.72(12) . .
O1 O2 O11 75.86(8) . .
O3 O2 O11 110.76(9) . .
Er O2 O11 50.70(4) . .
O4 O2 O11 59.99(6) . .
N1 O2 O13 94.98(12) . .
O1 O2 O13 73.99(7) . .
O3 O2 O13 112.18(9) . .
Er O2 O13 52.56(5) . .
O4 O2 O13 72.43(7) . .
O11 O2 O13 103.04(7) . .
N1 O2 O11 134.98(13) . 2_656
O1 O2 O11 155.93(10) . 2_656
O3 O2 O11 110.30(9) . 2_656
Er O2 O11 121.19(7) . 2_656
O4 O2 O11 70.35(6) . 2_656
O11 O2 O11 88.27(7) . 2_656
O13 O2 O11 128.07(8) . 2_656
N1 O2 O10 93.60(12) . 1_655
O1 O2 O10 104.02(8) . 1_655
O3 O2 O10 83.21(8) . 1_655
Er O2 O10 113.64(7) . 1_655
O4 O2 O10 106.00(7) . 1_655
O11 O2 O10 162.72(8) . 1_655
O13 O2 O10 61.11(6) . 1_655
O11 O2 O10 96.49(7) 2_656 1_655
N1 O3 O2 29.12(11) . .
N1 O3 O1 29.72(11) . .
O2 O3 O1 58.84(7) . .
N1 O3 O13 123.16(15) . 2_666
O2 O3 O13 146.11(10) . 2_666
O1 O3 O13 96.45(8) . 2_666
N1 O3 O8 133.36(16) . 2_666
O2 O3 O8 121.41(10) . 2_666
O1 O3 O8 132.09(10) . 2_666
O13 O3 O8 56.19(6) 2_666 2_666
N1 O3 O14 114.04(15) . 2_666
O2 O3 O14 85.17(9) . 2_666
O1 O3 O14 143.24(10) . 2_666
O13 O3 O14 112.29(8) 2_666 2_666
O8 O3 O14 59.00(6) 2_666 2_666
O6 N2 O4 123.3(2) . .
O6 N2 O5 121.9(2) . .
O4 N2 O5 114.75(18) . .
O6 N2 Er 178.68(18) . .
O4 N2 Er 55.55(11) . .
O5 N2 Er 59.20(10) . .
N2 O4 O5 32.82(11) . .
N2 O4 O6 27.60(11) . .
O5 O4 O6 60.41(8) . .
N2 O4 Er 98.88(13) . .
O5 O4 Er 66.06(6) . .
O6 O4 Er 126.47(9) . .
N2 O4 O2 132.90(15) . .
O5 O4 O2 110.76(9) . .
O6 O4 O2 141.62(12) . .
Er O4 O2 60.06(5) . .
N2 O4 O11 140.65(15) . .
O5 O4 O11 112.56(9) . .
O6 O4 O11 156.41(12) . .
Er O4 O11 52.66(5) . .
O2 O4 O11 61.43(6) . .
N2 O4 O12 84.77(13) . .
O5 O4 O12 63.35(7) . .
O6 O4 O12 104.09(9) . .
Er O4 O12 48.15(4) . .
O2 O4 O12 103.20(7) . .
O11 O4 O12 56.23(6) . .
N2 O5 O4 32.43(11) . .
N2 O5 O6 28.11(11) . .
O4 O5 O6 60.53(8) . .
N2 O5 Er 94.69(12) . .
O4 O5 Er 62.26(6) . .
O6 O5 Er 122.79(9) . .
N2 O5 O13 109.94(13) . 2_665
O4 O5 O13 142.31(9) . 2_665
O6 O5 O13 81.84(8) . 2_665
Er O5 O13 155.24(8) . 2_665
N2 O5 O13 102.65(13) . .
O4 O5 O13 82.96(8) . .
O6 O5 O13 117.15(10) . .
Er O5 O13 54.12(5) . .
O13 O5 O13 115.26(7) 2_665 .
N2 O5 O7 146.53(14) . .
O4 O5 O7 114.88(9) . .
O6 O5 O7 170.43(11) . .
Er O5 O7 53.45(5) . .
O13 O5 O7 102.66(7) 2_665 .
O13 O5 O7 68.83(6) . .
N2 O5 O12 94.68(13) . .
O4 O5 O12 74.64(8) . .
O6 O5 O12 111.83(10) . .
Er O5 O12 50.93(5) . .
O13 O5 O12 126.37(8) 2_665 .
O13 O5 O12 103.88(7) . .
O7 O5 O12 58.68(6) . .
N2 O5 O5 121.52(16) . 2_665
O4 O5 O5 128.54(12) . 2_665
O6 O5 O5 107.14(11) . 2_665
Er O5 O5 107.36(8) . 2_665
O13 O5 O5 57.78(6) 2_665 2_665
O13 O5 O5 57.48(7) . 2_665
O7 O5 O5 82.33(8) . 2_665
O12 O5 O5 141.01(10) . 2_665
N2 O6 O5 29.97(12) . .
N2 O6 O4 29.08(12) . .
O5 O6 O4 59.05(8) . .
N2 O6 O14 99.34(16) . 1_645
O5 O6 O14 122.74(10) . 1_645
O4 O6 O14 75.33(9) . 1_645
N2 O6 O9 137.22(19) . 2_665
O5 O6 O9 124.32(11) . 2_665
O4 O6 O9 134.83(12) . 2_665
O14 O6 O9 67.31(7) 1_645 2_665
N2 O6 O9 141.40(17) . 1_645
O5 O6 O9 169.10(12) . 1_645
O4 O6 O9 112.80(10) . 1_645
O14 O6 O9 57.20(6) 1_645 1_645
O9 O6 O9 66.42(8) 2_665 1_645
O9 N3 O8 123.2(2) . .
O9 N3 O7 121.4(2) . .
O8 N3 O7 115.43(18) . .
O9 N3 Er 173.83(17) . .
O8 N3 Er 61.39(11) . .
O7 N3 Er 54.25(10) . .
N3 O7 O8 31.92(10) . .
N3 O7 O9 28.39(11) . .
O8 O7 O9 60.31(8) . .
N3 O7 Er 100.06(12) . .
O8 O7 Er 68.28(6) . .
O9 O7 Er 128.31(10) . .
N3 O7 O12 109.45(13) . 2_565
O8 O7 O12 139.41(9) . 2_565
O9 O7 O12 82.17(8) . 2_565
Er O7 O12 148.35(8) . 2_565
N3 O7 O12 135.50(15) . .
O8 O7 O12 111.95(9) . .
O9 O7 O12 146.76(12) . .
Er O7 O12 52.81(5) . .
O12 O7 O12 107.96(7) 2_565 .
N3 O7 O5 137.77(14) . .
O8 O7 O5 112.22(9) . .
O9 O7 O5 151.17(12) . .
Er O7 O5 56.67(5) . .
O12 O7 O5 92.80(7) 2_565 .
O12 O7 O5 61.66(6) . .
N3 O7 O10 78.98(12) . .
O8 O7 O10 60.42(7) . .
O9 O7 O10 97.51(10) . .
Er O7 O10 49.41(4) . .
O12 O7 O10 146.83(8) 2_565 .
O12 O7 O10 56.53(6) . .
O5 O7 O10 101.84(7) . .
N3 O7 O13 82.66(12) . .
O8 O7 O13 59.67(7) . .
O9 O7 O13 104.10(9) . .
Er O7 O13 49.22(4) . .
O12 O7 O13 122.69(8) 2_565 .
O12 O7 O13 96.75(7) . .
O5 O7 O13 55.25(6) . .
O10 O7 O13 89.75(6) . .
N3 O8 O7 32.65(11) . .
N3 O8 O9 27.85(11) . .
O7 O8 O9 60.50(8) . .
N3 O8 Er 93.09(12) . .
O7 O8 Er 60.57(6) . .
O9 O8 Er 120.83(9) . .
N3 O8 O10 93.66(13) . .
O7 O8 O10 76.52(8) . .
O9 O8 O10 107.79(10) . .
Er O8 O10 52.76(5) . .
N3 O8 O1 147.38(14) . .
O7 O8 O1 115.31(9) . .
O9 O8 O1 171.37(11) . .
Er O8 O1 54.82(5) . .
O10 O8 O1 63.57(7) . .
N3 O8 O13 100.48(13) . .
O7 O8 O13 78.57(8) . .
O9 O8 O13 117.66(10) . .
Er O8 O13 53.57(5) . .
O10 O8 O13 105.36(7) . .
O1 O8 O13 66.83(6) . .
N3 O8 O3 127.08(14) . 2_666
O7 O8 O3 131.25(10) . 2_666
O9 O8 O3 113.64(10) . 2_666
Er O8 O3 108.16(7) . 2_666
O10 O8 O3 137.86(8) . 2_666
O1 O8 O3 74.90(7) . 2_666
O13 O8 O3 61.53(6) . 2_666
N3 O8 O14 97.54(13) . .
O7 O8 O14 129.76(9) . .
O9 O8 O14 69.99(8) . .
Er O8 O14 168.81(8) . .
O10 O8 O14 129.50(8) . .
O1 O8 O14 114.89(8) . .
O13 O8 O14 120.46(8) . .
O3 O8 O14 62.37(7) 2_666 .
N3 O9 O8 28.97(12) . .
N3 O9 O7 30.21(12) . .
O8 O9 O7 59.18(8) . .
N3 O9 O14 96.26(15) . .
O8 O9 O14 67.59(8) . .
O7 O9 O14 126.09(10) . .
N3 O9 O6 77.06(15) . 2_665
O8 O9 O6 82.55(9) . 2_665
O7 O9 O6 74.74(9) . 2_665
O14 O9 O6 91.27(9) . 2_665
N3 O9 O6 153.38(17) . 1_465
O8 O9 O6 125.25(10) . 1_465
O7 O9 O6 170.29(12) . 1_465
O14 O9 O6 60.47(7) . 1_465
O6 O9 O6 113.58(8) 2_665 1_465
Er O10 O8 59.83(5) . .
Er O10 O11 53.87(5) . .
O8 O10 O11 110.05(7) . .
Er O10 O12 53.19(5) . .
O8 O10 O12 96.08(7) . .
O11 O10 O12 60.61(6) . .
Er O10 O1 130.29(8) . 2_566
O8 O10 O1 73.64(7) . 2_566
O11 O10 O1 143.40(9) . 2_566
O12 O10 O1 155.71(9) . 2_566
Er O10 O1 54.53(5) . .
O8 O10 O1 58.39(6) . .
O11 O10 O1 66.84(6) . .
O12 O10 O1 106.06(7) . .
O1 O10 O1 87.52(7) 2_566 .
Er O10 O13 122.47(8) . 1_455
O8 O10 O13 103.68(7) . 1_455
O11 O10 O13 128.26(8) . 1_455
O12 O10 O13 78.12(7) . 1_455
O1 O10 O13 82.98(6) 2_566 1_455
O1 O10 O13 161.63(8) . 1_455
Er O10 O2 136.11(8) . 1_455
O8 O10 O2 158.10(8) . 1_455
O11 O10 O2 90.90(7) . 1_455
O12 O10 O2 88.58(7) . 1_455
O1 O10 O2 93.54(7) 2_566 1_455
O1 O10 O2 140.39(8) . 1_455
O13 O10 O2 56.30(5) 1_455 1_455
Er O10 O7 50.63(5) . .
O8 O10 O7 43.06(5) . .
O11 O10 O7 100.15(7) . .
O12 O10 O7 56.64(6) . .
O1 O10 O7 104.95(7) 2_566 .
O1 O10 O7 88.38(7) . .
O13 O10 O7 78.99(6) 1_455 .
O2 O10 O7 128.99(8) 1_455 .
Er O10 H1 128(3) . .
O8 O10 H1 72(3) . .
O11 O10 H1 143(3) . .
O12 O10 H1 155(3) . .
O1 O10 H1 2(3) 2_566 .
O1 O10 H1 86(3) . .
O13 O10 H1 84(3) 1_455 .
O2 O10 H1 96(3) 1_455 .
O7 O10 H1 103(3) . .
Er O10 H2 114(3) . .
O8 O10 H2 116(3) . .
O11 O10 H2 109(3) . .
O12 O10 H2 64(3) . .
O1 O10 H2 101(3) 2_566 .
O1 O10 H2 169(3) . .
O13 O10 H2 19(3) 1_455 .
O2 O10 H2 48(3) 1_455 .
O7 O10 H2 82(3) . .
H1 O10 H2 102(4) . .
Er O11 O14 125.95(8) . 2_566
Er O11 O10 54.76(5) . .
O14 O11 O10 79.35(8) 2_566 .
Er O11 O12 53.29(5) . .
O14 O11 O12 128.28(9) 2_566 .
O10 O11 O12 60.38(6) . .
Er O11 O4 55.53(5) . .
O14 O11 O4 163.28(10) 2_566 .
O10 O11 O4 108.45(7) . .
O12 O11 O4 67.37(7) . .
Er O11 O2 59.62(5) . .
O14 O11 O2 106.45(9) 2_566 .
O10 O11 O2 97.32(7) . .
O12 O11 O2 109.44(7) . .
O4 O11 O2 58.58(6) . .
Er O11 O2 127.87(8) . 2_656
O14 O11 O2 102.52(7) 2_566 2_656
O10 O11 O2 169.86(9) . 2_656
O12 O11 O2 112.20(8) . 2_656
O4 O11 O2 72.50(7) . 2_656
O2 O11 O2 91.73(7) . 2_656
Er O11 O1 51.23(5) . .
O14 O11 O1 82.65(7) 2_566 .
O10 O11 O1 58.90(6) . .
O12 O11 O1 100.44(7) . .
O4 O11 O1 88.84(7) . .
O2 O11 O1 41.97(5) . .
O2 O11 O1 131.09(8) 2_656 .
Er O11 O4 126.13(8) . 2_656
O14 O11 O4 67.30(7) 2_566 2_656
O10 O11 O4 135.27(8) . 2_656
O12 O11 O4 163.16(8) . 2_656
O4 O11 O4 98.04(7) . 2_656
O2 O11 O4 66.54(6) . 2_656
O2 O11 O4 53.12(5) 2_656 2_656
O1 O11 O4 87.12(6) . 2_656
Er O11 H3 124(3) . .
O14 O11 H3 2(3) 2_566 .
O10 O11 H3 78(2) . .
O12 O11 H3 127(3) . .
O4 O11 H3 164(3) . .
O2 O11 H3 106(3) . .
O2 O11 H3 104(3) 2_656 .
O1 O11 H3 81(3) . .
O4 O11 H3 69(2) 2_656 .
Er O11 H4 123(2) . .
O14 O11 H4 108(2) 2_566 .
O10 O11 H4 168(2) . .
O12 O11 H4 108(2) . .
O4 O11 H4 68(2) . .
O2 O11 H4 91(2) . .
O2 O11 H4 5(2) 2_656 .
O1 O11 H4 131(2) . .
O4 O11 H4 57(2) 2_656 .
H3 O11 H4 110(3) . .
Er O12 O14 125.18(9) . 1_545
Er O12 O7 120.66(8) . 2_565
O14 O12 O7 106.08(8) 1_545 2_565
Er O12 O10 54.20(5) . .
O14 O12 O10 116.02(8) 1_545 .
O7 O12 O10 127.87(8) 2_565 .
Er O12 O7 55.25(5) . .
O14 O12 O7 176.97(10) 1_545 .
O7 O12 O7 72.04(7) 2_565 .
O10 O12 O7 66.84(6) . .
Er O12 O11 53.43(5) . .
O14 O12 O11 75.03(7) 1_545 .
O7 O12 O11 168.34(9) 2_565 .
O10 O12 O11 59.02(6) . .
O7 O12 O11 106.30(7) . .
Er O12 O5 56.39(5) . .
O14 O12 O5 117.74(9) 1_545 .
O7 O12 O5 75.44(7) 2_565 .
O10 O12 O5 107.81(7) . .
O7 O12 O5 59.66(6) . .
O11 O12 O5 93.66(7) . .
Er O12 O4 50.69(5) . .
O14 O12 O4 87.59(8) 1_545 .
O7 O12 O4 111.93(8) 2_565 .
O10 O12 O4 99.56(7) . .
O7 O12 O4 90.93(7) . .
O11 O12 O4 56.40(6) . .
O5 O12 O4 42.02(5) . .
Er O12 O9 131.95(8) . 2_565
O14 O12 O9 70.26(7) 1_545 2_565
O7 O12 O9 41.08(5) 2_565 2_565
O10 O12 O9 167.98(8) . 2_565
O7 O12 O9 107.13(7) . 2_565
O11 O12 O9 132.81(8) . 2_565
O5 O12 O9 75.91(7) . 2_565
O4 O12 O9 90.76(7) . 2_565
Er O12 H5 123(2) . .
O14 O12 H5 4(2) 1_545 .
O7 O12 H5 106(2) 2_565 .
O10 O12 H5 118(2) . .
O7 O12 H5 174(2) . .
O11 O12 H5 74(2) . .
O5 O12 H5 114(2) . .
O4 O12 H5 84(2) . .
O9 O12 H5 69(2) 2_565 .
Er O12 H6 116(3) . .
O14 O12 H6 110(3) 1_545 .
O7 O12 H6 5(3) 2_565 .
O10 O12 H6 126(3) . .
O7 O12 H6 68(3) . .
O11 O12 H6 165(3) . .
O5 O12 H6 71(3) . .
O4 O12 H6 109(3) . .
O9 O12 H6 43(3) 2_565 .
H5 O12 H6 110(4) . .
Er O13 O5 116.54(8) . 2_665
Er O13 O8 58.52(5) . .
O5 O13 O8 108.44(7) 2_665 .
Er O13 O5 56.87(5) . .
O5 O13 O5 64.73(7) 2_665 .
O8 O13 O5 95.75(7) . .
Er O13 O2 58.70(5) . .
O5 O13 O2 147.16(8) 2_665 .
O8 O13 O2 96.00(7) . .
O5 O13 O2 91.89(7) . .
Er O13 O3 113.08(8) . 2_666
O5 O13 O3 109.11(8) 2_665 2_666
O8 O13 O3 62.28(6) . 2_666
O5 O13 O3 155.09(8) . 2_666
O2 O13 O3 101.49(7) . 2_666
Er O13 O10 121.25(7) . 1_655
O5 O13 O10 110.88(7) 2_665 1_655
O8 O13 O10 132.30(8) . 1_655
O5 O13 O10 124.96(8) . 1_655
O2 O13 O10 62.59(6) . 1_655
O3 O13 O10 79.95(7) 2_666 1_655
Er O13 O1 51.73(5) . .
O5 O13 O1 163.16(8) 2_665 .
O8 O13 O1 56.00(6) . .
O5 O13 O1 107.73(7) . .
O2 O13 O1 42.45(5) . .
O3 O13 O1 70.96(7) 2_666 .
O10 O13 O1 85.85(6) 1_655 .
Er O13 O7 48.80(4) . .
O5 O13 O7 79.55(7) 2_665 .
O8 O13 O7 41.76(5) . .
O5 O13 O7 55.92(6) . .
O2 O13 O7 107.15(7) . .
O3 O13 O7 99.73(7) 2_666 .
O10 O13 O7 169.17(8) 1_655 .
O1 O13 O7 83.84(6) . .
Er O13 O6 110.87(7) . 2_665
O5 O13 O6 41.10(5) 2_665 2_665
O8 O13 O6 71.98(6) . 2_665
O5 O13 O6 86.63(7) . 2_665
O2 O13 O6 167.65(8) . 2_665
O3 O13 O6 75.80(6) 2_666 2_665
O10 O13 O6 127.66(8) 1_655 2_665
O1 O13 O6 126.72(7) . 2_665
O7 O13 O6 62.07(6) . 2_665
Er O13 H7 117(3) . .
O5 O13 H7 1(3) 2_665 .
O8 O13 H7 110(3) . .
O5 O13 H7 64(3) . .
O2 O13 H7 146(3) . .
O3 O13 H7 110(3) 2_666 .
O10 O13 H7 110(3) 1_655 .
O1 O13 H7 164(3) . .
O7 O13 H7 81(3) . .
O6 O13 H7 42(3) 2_665 .
Er O13 H8 116(3) . .
O5 O13 H8 103(2) 2_665 .
O8 O13 H8 62(3) . .
O5 O13 H8 151(2) . .
O2 O13 H8 108(2) . .
O3 O13 H8 7(2) 2_666 .
O10 O13 H8 84(2) 1_655 .
O1 O13 H8 77(3) . .
O7 O13 H8 97(2) . .
O6 O13 H8 69(2) 2_665 .
H7 O13 H8 104(4) . .
O12 O14 O11 99.46(8) 1_565 2_566
O12 O14 O8 155.19(10) 1_565 .
O11 O14 O8 104.93(8) 2_566 .
O12 O14 O9 124.26(9) 1_565 .
O11 O14 O9 123.08(10) 2_566 .
O8 O14 O9 42.42(5) . .
O12 O14 O3 108.55(10) 1_565 2_666
O11 O14 O3 110.07(9) 2_566 2_666
O8 O14 O3 58.63(6) . 2_666
O9 O14 O3 90.18(7) . 2_666
O12 O14 O6 75.70(8) 1_565 1_465
O11 O14 O6 102.33(9) 2_566 1_465
O8 O14 O6 103.04(8) . 1_465
O9 O14 O6 62.34(7) . 1_465
O3 O14 O6 145.80(9) 2_666 1_465
O12 O14 H9 123(4) 1_565 .
O11 O14 H9 110(4) 2_566 .
O8 O14 H9 44(4) . .
O9 O14 H9 78(4) . .
O3 O14 H9 15(4) 2_666 .
O6 O14 H9 138(4) 1_465 .
O12 O14 H10 104(3) 1_565 .
O11 O14 H10 112(3) 2_566 .
O8 O14 H10 71(3) . .
O9 O14 H10 31(3) . .
O3 O14 H10 120(3) 2_666 .
O6 O14 H10 32(3) 1_465 .
H9 O14 H10 109(5) . .
loop_
_geom_bond_atom_site_label_1
_geom_bond_atom_site_label_2
_geom_bond_distance
_geom_bond_site_symmetry_2
Er O12 2.3345(16) .
Er O11 2.3389(16) .
Er O10 2.3651(17) .
Er O7 2.4077(16) .
Er O13 2.4230(17) .
Er O4 2.4251(17) .
Er O1 2.4551(16) .
Er O5 2.5043(17) .
Er O8 2.5683(17) .
Er O2 2.6076(16) .
Er N2 2.906(2) .
Er N3 2.9212(19) .
Er N1 2.9696(18) .
N1 O3 1.224(2) .
N1 O2 1.259(2) .
N1 O1 1.277(2) .
O1 O2 2.144(2) .
O1 O3 2.186(2) .
O1 O8 2.753(2) .
O1 O10 2.839(2) 2_566
O1 O10 2.895(2) .
O1 O13 3.053(2) .
O1 O11 3.108(2) .
O2 O3 2.178(2) .
O2 O4 2.754(2) .
O2 O11 2.834(2) .
O2 O13 2.844(2) .
O2 O11 2.872(2) 2_656
O2 O10 3.035(2) 1_655
O3 O13 2.952(3) 2_666
O3 O8 2.973(3) 2_666
O3 O14 3.085(3) 2_666
N2 O6 1.210(3) .
N2 O4 1.269(3) .
N2 O5 1.283(3) .
O4 O5 2.150(2) .
O4 O6 2.182(3) .
O4 O11 2.795(3) .
O4 O12 3.097(3) .
O5 O6 2.180(2) .
O5 O13 2.782(2) 2_665
O5 O13 2.792(3) .
O5 O7 2.814(2) .
O5 O12 2.870(2) .
O5 O5 2.984(3) 2_665
O6 O14 3.140(3) 1_645
O6 O9 3.151(3) 2_665
O6 O9 3.196(3) 1_645
N3 O9 1.216(3) .
N3 O8 1.260(2) .
N3 O7 1.286(2) .
O7 O8 2.153(2) .
O7 O9 2.182(3) .
O7 O12 2.777(2) 2_565
O7 O12 2.786(2) .
O7 O10 3.067(3) .
O7 O13 3.169(2) .
O8 O9 2.178(2) .
O8 O10 2.743(2) .
O8 O13 2.790(2) .
O8 O3 2.973(3) 2_666
O8 O14 2.985(3) .
O9 O14 3.034(3) .
O9 O6 3.151(3) 2_665
O9 O6 3.196(3) 1_465
O10 O11 2.744(2) .
O10 O12 2.783(2) .
O10 O1 2.839(2) 2_566
O10 O13 2.993(2) 1_455
O10 O2 3.035(2) 1_455
O10 H1 0.83(4) .
O10 H2 0.75(4) .
O11 O14 2.735(3) 2_566
O11 O12 2.789(2) .
O11 O2 2.872(2) 2_656
O11 O4 3.243(2) 2_656
O11 H3 0.83(4) .
O11 H4 0.82(4) .
O12 O14 2.714(3) 1_545
O12 O7 2.777(2) 2_565
O12 O9 3.290(3) 2_565
O12 H5 0.88(4) .
O12 H6 0.78(4) .
O13 O5 2.782(2) 2_665
O13 O3 2.952(3) 2_666
O13 O10 2.993(2) 1_655
O13 O6 3.282(3) 2_665
O13 H7 0.79(4) .
O13 H8 0.78(4) .
O14 O12 2.714(3) 1_565
O14 O11 2.735(3) 2_566
O14 O3 3.085(3) 2_666
O14 O6 3.140(3) 1_465
O14 H9 0.73(6) .
O14 H10 0.75(5) .
loop_
_geom_hbond_atom_site_label_D
_geom_hbond_atom_site_label_H
_geom_hbond_atom_site_label_A
_geom_hbond_distance_DH
_geom_hbond_distance_HA
_geom_hbond_distance_DA
_geom_hbond_angle_DHA
_geom_hbond_site_symmetry_A
O10 H1 O1 0.83(4) 2.01(4) 2.839(2) 177(4) 2_566
O10 H2 O13 0.75(4) 2.30(4) 2.993(2) 154(4) 1_455
O10 H2 O2 0.75(4) 2.59(4) 3.035(2) 120(3) 1_455
O11 H3 O14 0.83(4) 1.91(4) 2.735(3) 177(4) 2_566
O11 H4 O2 0.82(4) 2.05(4) 2.872(2) 173(3) 2_656
O12 H5 O14 0.88(4) 1.84(4) 2.714(3) 175(3) 1_545
O12 H6 O7 0.78(4) 2.00(4) 2.777(2) 173(4) 2_565
O13 H7 O5 0.79(4) 1.99(4) 2.782(2) 178(4) 2_665
O13 H8 O3 0.78(4) 2.18(4) 2.952(3) 171(3) 2_666
O14 H9 O3 0.73(6) 2.38(6) 3.085(3) 160(6) 2_666
O14 H10 O9 0.75(5) 2.42(5) 3.034(3) 140(4) .
O14 H10 O6 0.75(5) 2.53(4) 3.140(3) 139(4) 1_465
