#------------------------------------------------------------------------------
#$Date: 2022-05-04 11:17:56 +0300 (Wed, 04 May 2022) $
#$Revision: 274875 $
#$URL: file:///home/coder/svn-repositories/cod/cif/8/10/51/8105132.cif $
#------------------------------------------------------------------------------
#
# This file is available in the Crystallography Open Database (COD),
# http://www.crystallography.net/
#
# All data on this site have been placed in the public domain by the
# contributors.
#
data_8105132
loop_
_publ_author_name
'Li, Jin'
'Chen, Yan'
'Wu, Ziqing'
'Liu, Yali'
'Yin, Dachuan'
'Zuo, Zhenyu'
_publ_section_title
;
 The crystal structure of
 2-phenyl-4,6-bis(prop-2-yn-1-yloxy)-1,3,5-triazine, C15H11N3O2
;
_journal_issue                   2
_journal_name_full
'Zeitschrift f\"ur Kristallographie - New Crystal Structures'
_journal_page_first              433
_journal_page_last               435
_journal_paper_doi               10.1515/ncrs-2019-0733
_journal_volume                  235
_journal_year                    2020
_chemical_formula_moiety         'C15 H11 N3 O2'
_chemical_formula_sum            'C15 H11 N3 O2'
_chemical_formula_weight         265.27
_space_group_crystal_system      triclinic
_space_group_IT_number           2
_space_group_name_Hall           '-P 1'
_space_group_name_H-M_alt        'P -1'
_atom_sites_solution_hydrogens   geom
_cell_angle_alpha                104.578(5)
_cell_angle_beta                 111.882(6)
_cell_angle_gamma                106.589(5)
_cell_formula_units_Z            2
_cell_length_a                   8.4680(5)
_cell_length_b                   9.7578(5)
_cell_length_c                   10.2101(6)
_cell_measurement_reflns_used    1554
_cell_measurement_temperature    250(2)
_cell_measurement_theta_max      75.6310
_cell_measurement_theta_min      5.1030
_cell_volume                     686.77(9)
_computing_cell_refinement       'CrysAlisPro 1.171.39.46 (Rigaku OD, 2018)'
_computing_data_collection       'CrysAlisPro 1.171.39.46 (Rigaku OD, 2018)'
_computing_data_reduction        'CrysAlisPro 1.171.39.46 (Rigaku OD, 2018)'
_computing_molecular_graphics    'Olex2 (Dolomanov et al., 2009)'
_computing_publication_material  'Olex2 (Dolomanov et al., 2009)'
_computing_structure_refinement  'ShelXL (Sheldrick, 2015)'
_diffrn_ambient_temperature      250.15
_diffrn_detector                 'CCD plate'
_diffrn_detector_area_resol_mean 10.6525
_diffrn_detector_type            Atlas
_diffrn_measured_fraction_theta_full 0.998
_diffrn_measured_fraction_theta_max 0.989
_diffrn_measurement_details
;
List of Runs (angles in degrees, time in seconds):

  # Type    Start    End  Width  t~exp~   \w     \q     \k     \f   Frames
--------------------------------------------------------------------------
  1  \w    -49.00  -8.00   1.00    2.00    --  -40.08 125.00  30.00   41
  2  \w   -105.00 -16.00   1.00    2.00    --  -40.08 -38.00 120.00   89
  3  \w    -49.00  -7.00   1.00    2.00    --  -40.08 125.00 -30.00   42
  4  \w    -65.00  30.00   1.00    2.00    --  -40.08  38.00 -60.00   95
  5  \w    -76.00 -51.00   1.00    2.00    --  -40.08 125.00 -30.00   25
  6  \w     86.00 111.00   1.00    2.00    --   40.08  57.00   0.00   25
  7  \w     12.00  68.00   1.00    2.00    --   40.08  57.00   0.00   56
  8  \w     52.00  96.00   1.00    2.00    --   40.08-125.00-150.00   44
  9  \w    124.00 178.00   1.00    3.00    --  112.00  45.00-150.00   54
 10  \w    139.00 178.00   1.00    3.00    --  112.00  45.00 120.00   39
 11  \w     53.00 138.00   1.00    3.00    --  112.00 -30.00 150.00   85
 12  \w     54.00  89.00   1.00    3.00    --  112.00 -77.00-120.00   35
 13  \w     74.00 100.00   1.00    3.00    --  112.00 178.00 -90.00   26
 14  \w     77.00 104.00   1.00    3.00    --  112.00-111.00 150.00   27
 15  \w    121.00 147.00   1.00    3.00    --  112.00  45.00 150.00   26
 16  \w     87.00 122.00   1.00    3.00    --  112.00  45.00 120.00   35
 17  \w     84.00 112.00   1.00    3.00    --  112.00  61.00-180.00   28
 18  \w    116.00 144.00   1.00    3.00    --  112.00 111.00-150.00   28
;
_diffrn_measurement_device       'four-circle diffractometer'
_diffrn_measurement_device_type  'SuperNova, Dual, Cu at home/near, Atlas'
_diffrn_measurement_method       '\w scans'
_diffrn_orient_matrix_type
'CrysAlisPro convention (1999,Acta A55,543-557)'
_diffrn_orient_matrix_UB_11      0.1663908000
_diffrn_orient_matrix_UB_12      0.0332241000
_diffrn_orient_matrix_UB_13      -0.0341798000
_diffrn_orient_matrix_UB_21      -0.1373356000
_diffrn_orient_matrix_UB_22      -0.0969669000
_diffrn_orient_matrix_UB_23      -0.1733283000
_diffrn_orient_matrix_UB_31      -0.0161866000
_diffrn_orient_matrix_UB_32      0.1479657000
_diffrn_orient_matrix_UB_33      -0.0189300000
_diffrn_radiation_monochromator  mirror
_diffrn_radiation_probe          x-ray
_diffrn_radiation_type           CuK\a
_diffrn_radiation_wavelength     1.54184
_diffrn_reflns_av_R_equivalents  0.0134
_diffrn_reflns_av_unetI/netI     0.0144
_diffrn_reflns_Laue_measured_fraction_full 0.998
_diffrn_reflns_Laue_measured_fraction_max 0.989
_diffrn_reflns_limit_h_max       10
_diffrn_reflns_limit_h_min       -10
_diffrn_reflns_limit_k_max       12
_diffrn_reflns_limit_k_min       -9
_diffrn_reflns_limit_l_max       12
_diffrn_reflns_limit_l_min       -12
_diffrn_reflns_number            6581
_diffrn_reflns_point_group_measured_fraction_full 0.998
_diffrn_reflns_point_group_measured_fraction_max 0.989
_diffrn_reflns_theta_full        67.684
_diffrn_reflns_theta_max         76.487
_diffrn_reflns_theta_min         5.100
_diffrn_source                   'micro-focus sealed X-ray tube'
_diffrn_source_type              'SuperNova (Cu) X-ray Source'
_exptl_absorpt_coefficient_mu    0.723
_exptl_absorpt_correction_T_max  1.00000
_exptl_absorpt_correction_T_min  0.96226
_exptl_absorpt_correction_type   multi-scan
_exptl_absorpt_process_details
;
CrysAlisPro 1.171.39.46 (Rigaku Oxford Diffraction, 2018)
Empirical absorption correction using spherical harmonics,
 implemented in SCALE3 ABSPACK scaling algorithm.
;
_exptl_crystal_density_diffrn    1.283
_exptl_crystal_description       block
_exptl_crystal_F_000             276
_exptl_crystal_size_max          0.18
_exptl_crystal_size_mid          0.16
_exptl_crystal_size_min          0.12
_refine_diff_density_max         0.172
_refine_diff_density_min         -0.136
_refine_diff_density_rms         0.028
_refine_ls_extinction_coef       0.016(2)
_refine_ls_extinction_expression Fc^*^=kFc[1+0.001xFc^2^\l^3^/sin(2\q)]^-1/4^
_refine_ls_extinction_method     'SHELXL-2014/7 (Sheldrick 2014'
_refine_ls_goodness_of_fit_ref   1.084
_refine_ls_hydrogen_treatment    constr
_refine_ls_matrix_type           full
_refine_ls_number_parameters     182
_refine_ls_number_reflns         2857
_refine_ls_number_restraints     0
_refine_ls_restrained_S_all      1.084
_refine_ls_R_factor_all          0.0474
_refine_ls_R_factor_gt           0.0394
_refine_ls_shift/su_max          0.000
_refine_ls_shift/su_mean         0.000
_refine_ls_structure_factor_coef Fsqd
_refine_ls_weighting_details
'w=1/[\s^2^(Fo^2^)+(0.0648P)^2^+0.0555P] where P=(Fo^2^+2Fc^2^)/3'
_refine_ls_weighting_scheme      calc
_refine_ls_wR_factor_gt          0.1144
_refine_ls_wR_factor_ref         0.1261
_reflns_Friedel_coverage         0.000
_reflns_Friedel_fraction_full    .
_reflns_Friedel_fraction_max     .
_reflns_number_gt                2328
_reflns_number_total             2857
_reflns_threshold_expression     'I > 2\s(I)'
_cod_data_source_file            suppl_ncrs-2019-0733_suppl.cif
_cod_data_source_block           1
_cod_original_cell_volume        686.77(8)
_cod_database_code               8105132
_shelx_space_group_comment
;
The symmetry employed for this shelxl refinement is uniquely defined
by the following loop, which should always be used as a source of
symmetry information in preference to the above space-group names.
They are only intended as comments.
;
_shelx_estimated_absorpt_t_max   0.918
_shelx_estimated_absorpt_t_min   0.881
_reflns_odcompleteness_completeness 69.20
_reflns_odcompleteness_iscentric 1
_reflns_odcompleteness_theta     77.17
_olex2_refinement_description
;
1. Fixed Uiso
 At 1.2 times of:
  All C(H) groups, All C(H,H) groups
2.a Secondary CH2 refined with riding coordinates:
 C10(H10A,H10B), C13(H13A,H13B)
2.b Aromatic/amide H refined with riding coordinates:
 C1(H1), C2(H2), C3(H3), C4(H4), C5(H5)
2.c :
 C12(H12), C15(H15)
;
_shelx_res_file
;
    1.res created by SHELXL-2014/7

TITL exp_34061_a.res in P-1
REM Old TITL exp_34061 in P-1
REM SHELXT solution in P-1
REM R1 0.175, Rweak 0.008, Alpha 0.048, Orientation as input
REM Formula found by SHELXT: C14 N5 O2
CELL 1.54184 8.467982 9.757791 10.210097 104.5775 111.8823 106.5885
ZERR 2 0.00049 0.000495 0.000628 0.0048 0.0057 0.0049
LATT 1
SFAC C H N O
UNIT 30 22 6 4

L.S. 4 0 0
PLAN  20
SIZE 0.18 0.16 0.12
TEMP -23
BOND $H
list 4
fmap 2 53
acta
REM <olex2.extras>
REM <HklSrc "%.\\1.hkl">
REM </olex2.extras>

WGHT    0.064800    0.055500
EXTI    0.016273
FVAR      14.53017
O1    4    0.261801    0.893803    0.617050    11.00000    0.07304    0.05701 =
         0.06537    0.02239    0.01890    0.03480
O2    4    0.624623    0.726551    0.929658    11.00000    0.06498    0.05285 =
         0.04551    0.01325    0.00703    0.02335
N1    3    0.229434    0.649589    0.519911    11.00000    0.05701    0.05274 =
         0.04549    0.01612    0.01516    0.02176
N2    3    0.453506    0.818442    0.781893    11.00000    0.05859    0.04763 =
         0.04747    0.01266    0.01558    0.02163
N3    3    0.419809    0.558136    0.677942    11.00000    0.05539    0.04584 =
         0.04511    0.01433    0.01640    0.01863
C1    1    0.040982    0.348909    0.276408    11.00000    0.06742    0.06407 =
         0.04777    0.01280    0.01909    0.01453
AFIX  43
H1    2   -0.001196    0.425621    0.260789    11.00000   -1.20000
AFIX   0
C2    1   -0.046781    0.199778    0.159444    11.00000    0.08053    0.07954 =
         0.04687    0.00533    0.01944    0.00390
AFIX  43
H2    2   -0.148483    0.175950    0.064646    11.00000   -1.20000
AFIX   0
C3    1    0.014400    0.087599    0.181874    11.00000    0.10451    0.05748 =
         0.07184   -0.00236    0.04838    0.00728
AFIX  43
H3    2   -0.046320   -0.012965    0.102692    11.00000   -1.20000
AFIX   0
C4    1    0.163425    0.121245    0.318949    11.00000    0.10129    0.05407 =
         0.08564    0.00985    0.04866    0.02592
AFIX  43
H4    2    0.205198    0.044006    0.333246    11.00000   -1.20000
AFIX   0
C5    1    0.252788    0.268814    0.436610    11.00000    0.07355    0.05393 =
         0.06575    0.01327    0.03002    0.02318
AFIX  43
H5    2    0.355287    0.291626    0.530472    11.00000   -1.20000
AFIX   0
C6    1    0.191008    0.383365    0.416036    11.00000    0.05640    0.05015 =
         0.04634    0.01219    0.02376    0.01404
C7    1    0.284896    0.539311    0.543737    11.00000    0.04985    0.04815 =
         0.04291    0.01541    0.01926    0.01646
C8    1    0.494158    0.697581    0.789490    11.00000    0.05156    0.04801 =
         0.04337    0.01499    0.01570    0.01802
C9    1    0.320446    0.785210    0.643519    11.00000    0.05574    0.05100 =
         0.05068    0.01901    0.01924    0.02362
C10   1    0.354712    1.046707    0.741373    11.00000    0.07728    0.05275 =
         0.07809    0.02098    0.03326    0.03467
AFIX  23
H10A  2    0.385251    1.035649    0.839546    11.00000   -1.20000
H10B  2    0.269774    1.098492    0.726852    11.00000   -1.20000
AFIX   0
C11   1    0.525164    1.141992    0.746979    11.00000    0.07896    0.05894 =
         0.08703    0.03080    0.03560    0.03784
C12   1    0.659870    1.219373    0.748312    11.00000    0.09863    0.08299 =
         0.15580    0.05105    0.06820    0.03975
AFIX 163
H12   2    0.768331    1.281679    0.749386    11.00000   -1.20000
AFIX   0
C13   1    0.678667    0.601030    0.943797    11.00000    0.06507    0.06045 =
         0.05583    0.02311    0.01819    0.02870
AFIX  23
H13A  2    0.748727    0.585806    0.887860    11.00000   -1.20000
H13B  2    0.567183    0.503321    0.901115    11.00000   -1.20000
AFIX   0
C14   1    0.795875    0.645875    1.107542    11.00000    0.05685    0.06566 =
         0.06267    0.02844    0.01908    0.02769
C15   1    0.887685    0.680173    1.239303    11.00000    0.07233    0.09110 =
         0.06194    0.03476    0.01584    0.03864
AFIX 163
H15   2    0.961380    0.707703    1.345065    11.00000   -1.20000
AFIX   0
HKLF 4

REM  exp_34061_a.res in P-1
REM R1 =  0.0394 for    2328 Fo > 4sig(Fo)  and  0.0474 for all    2857 data
REM    182 parameters refined using      0 restraints

END

WGHT      0.0648      0.0555

REM Highest difference peak  0.172,  deepest hole -0.136,  1-sigma level  0.028
Q1    1   0.2360  0.4614  0.4712  11.00000  0.05    0.17
Q2    1   0.1146  0.1439  0.2423  11.00000  0.05    0.16
Q3    1   0.4935  0.9048  0.8464  11.00000  0.05    0.14
Q4    1   0.1437  0.3786  0.3442  11.00000  0.05    0.13
Q5    1   0.2879  0.7148  0.5706  11.00000  0.05    0.13
Q6    1   0.0128  0.2799  0.2365  11.00000  0.05    0.12
Q7    1   0.1223  0.6349  0.4186  11.00000  0.05    0.11
Q8    1   0.6275  0.5033  0.8561  11.00000  0.05    0.11
Q9    1   0.4773  0.4779  0.7114  11.00000  0.05    0.10
Q10   1   0.0518  0.2190  0.1838  11.00000  0.05    0.10
Q11   1   0.8642  0.5928  1.1550  11.00000  0.05    0.09
Q12   1   0.2209  0.2011  0.3979  11.00000  0.05    0.09
Q13   1   0.0192 -0.0401  0.1239  11.00000  0.05    0.09
Q14   1   0.3341  0.8818  0.5886  11.00000  0.05    0.09
Q15   1   0.2341  1.0899  0.6614  11.00000  0.05    0.09
Q16   1   0.3410  0.5449  0.5983  11.00000  0.05    0.09
Q17   1   0.6498  1.2243  0.8410  11.00000  0.05    0.08
Q18   1   0.5506  0.9654  0.9453  11.00000  0.05    0.08
Q19   1   0.5188  1.0359  0.8832  11.00000  0.05    0.08
Q20   1   0.0168  0.5065  0.2710  11.00000  0.05    0.08
;
_shelx_hkl_file
;
   0   0   1 95178.3 351.447   4
   0   0   2 299516. 900.661   4
   0   0   3 7536.08 180.697   4
   0   0   4 16832.8 324.780   4
   0   0   5 964.532 94.3583   4
   0   0   6 19530.3 463.000   4
   0   0   7 10148.3 338.834  32
   0   0  -7 10331.6 349.992   9
   0   0   7 10051.6 321.662  11
   0   0   8 2377.30 161.146  11
   0   0  -8 2331.76 179.350   9
   0   0   8 2752.20 183.149  32
   0   0  -9-8.22724 49.7256   9
   0   0 -10 722.218 83.7455  18
   0   0 -10 690.136 77.6970   9
   0   0  10 723.958 83.0301  28
   0   1 -11 116.354 38.0229  18
   0  -1  11 72.0197 32.6459  28
   0   1 -10 804.127 94.8280   9
   0   1 -10 930.009 105.402  18
   0   1  -9 5915.48 273.076   9
   0   1  -8 1525.61 146.394   9
   0   1  -7 16998.1 520.674   1
   0   1  -7 16433.8 433.657   9
   0  -1   6 24600.6 459.783   4
   0  -1   5 55668.9 600.503   4
   0   1  -5 56073.7 491.357   3
   0  -1   4 29949.6 370.093   4
   0   1  -4 30807.4 336.257   3
   0   1  -3 307153. 603.909   8
   0   1  -3 309243. 949.212   3
   0  -1   2 493782. 828.377   4
   0  -1   2 494888. 853.919   6
   0   1  -2 493376. 841.569   8
   0   1  -1 517289. 898.945   3
   0   1  -1 515892. 939.678   1
   0   1   0 26270.9 184.588   5
   0   1   0 26319.2 176.092   4
   0   1   1 255252. 801.924   4
   0   1   2 93508.6 615.396   4
   0   1   3 137034. 895.771   4
   0   1   4 212.969 54.2460   4
   0   1   5 19598.7 454.291   4
   0   1   6 3668.93 225.778   4
   0   1   7 17853.5 471.309  32
   0   1   7 17604.3 449.262  11
   0  -1  -7 18050.0 461.588   9
   0   1   8 6494.36 265.076  11
   0   1   8 6099.28 272.831  32
   0  -1  -8 6361.26 270.399   9
   0   1   9 8.51504 35.4568  11
   0   1   9 41.7483 46.8856  28
   0  -1  -9-28.7087 39.1942   9
   0   1  10 688.790 66.1300  28
   0  -1 -10 635.141 65.7033  18
   0   2 -11 75.0986 39.8883   9
   0   2 -11 83.5398 40.1064  18
   0   2 -10 598.728 96.2355  18
   0   2 -10 572.262 92.9478   9
   0   2  -9 139.456 52.7425  30
   0   2  -9 129.659 70.3476   9
   0   2  -8 1452.08 142.547   9
   0   2  -7 1913.47 174.876   1
   0   2  -6 74620.1 944.460   1
   0   2  -5 238576. 1488.86   1
   0  -2   5 238682. 1033.00   4
   0   2  -5 238605. 1146.70   3
   0   2  -4 38586.8 425.918   3
   0   2  -4 39056.9 323.640   8
   0  -2   4 39119.9 331.902   4
   0   2  -4 38757.0 515.779   1
   0   2  -3 50812.7 497.776   1
   0  -2   3 50705.6 252.638   4
   0   2  -3 50676.3 444.371   3
   0   2  -3 50846.2 388.967   8
   0   2  -2 84197.7 549.968   1
   0  -2   2 84789.2 436.206   7
   0   2  -2 83998.6 529.327   3
   0   2  -2 83387.9 500.062   8
   0   2  -1 25508.3 163.051   4
   0   2  -1 25308.9 270.953   3
   0   2   0 262042. 868.911   8
   0   2   0 263356. 828.683   5
   0   2   0 263612. 798.999   4
   0   2   1 22910.7 302.004   4
   0   2   2 1172.05 87.0210   4
   0   2   3 12782.4 318.371   4
   0   2   4 1089.12 111.315   4
   0   2   5 41608.9 737.178   4
   0   2   6 1566.88 146.902  32
   0   2   6 1685.00 170.877   4
   0   2   6 1504.04 143.231  11
   0   2   7 10066.1 365.027  32
   0   2   7 10737.4 360.570  11
   0  -2  -7 10360.4 334.035   9
   0   2   8 161.774 60.8102  11
   0   2   8 157.792 60.2229  28
   0   2   9-20.9845 35.9796  28
   0   2   9 20.9838 30.0969  11
   0   3 -11 134.114 48.2474  18
   0   3 -11 159.796 48.7059   9
   0   3 -10 1335.21 115.682  30
   0   3 -10 1463.79 142.319  18
   0   3 -10 1412.98 134.311   9
   0   3  -9 1224.32 125.758  30
   0   3  -9 1363.41 145.641  18
   0   3  -9 1183.42 130.111   9
   0   3  -8 3109.09 176.952  36
   0   3  -8 2995.95 198.846   9
   0   3  -7 5093.41 280.469   1
   0   3  -6 30067.5 484.908   3
   0   3  -6 29835.1 601.297   1
   0   3  -5 35215.2 574.769   1
   0   3  -5 34459.2 491.374   3
   0   3  -4 21278.0 316.365   8
   0   3  -4 22045.7 401.947   1
   0  -3   4 21774.7 264.906   6
   0   3  -4 21976.8 362.901   3
   0   3  -3 14274.3 291.346   1
   0   3  -3 14631.0 279.175   3
   0  -3   3 15196.1 229.807   7
   0   3  -3 14894.7 261.212   8
   0   3  -2 18216.1 289.675   8
   0   3  -2 18212.5 293.727   3
   0  -3   2 17412.4 249.455   7
   0   3  -1 69169.1 558.030   8
   0   3  -1 68124.4 545.510   5
   0   3  -1 69318.6 399.044   4
   0   3   0 7045.45 180.853   8
   0   3   0 7401.27 173.335   4
   0   3   0 6838.34 168.985   5
   0   3   1 6538.99 194.086   4
   0   3   2 205525. 1258.43   4
   0   3   3 14437.6 380.809   4
   0   3   4 6919.67 298.679   4
   0   3   5 960.856 115.564  11
   0   3   5 839.391 127.033   4
   0   3   5 814.699 107.780  32
   0   3   6 4926.19 252.946  11
   0   3   6 4838.89 243.607  28
   0   3   6 4874.49 258.420  32
   0   3   7 2108.20 164.192  11
   0   3   7 2050.58 155.933  28
   0   3   8 196.339 52.8652  28
   0   3   8 204.896 54.8767  11
   0   3   9 106.869 30.5693  11
   0   4 -11 3047.99 154.498   9
   0   4 -11 2968.29 155.247  18
   0   4 -11 2769.57 133.095  30
   0   4 -10 8988.51 304.939  30
   0   4 -10 9249.29 319.602   9
   0   4 -10 9492.67 331.438  18
   0   4  -9 100.038 50.9802  36
   0   4  -9 17.5623 61.5854  18
   0   4  -9-7.76410 62.8761  30
   0   4  -9 27.5613 46.9557   9
   0   4  -8 602.179 92.0433  36
   0   4  -8 551.742 91.1910   9
   0   4  -8 632.948 106.617  18
   0   4  -7 2147.33 192.394   1
   0   4  -6 2747.64 190.808   1
   0   4  -5 1627.38 136.047   1
   0   4  -5 1569.27 119.623   3
   0   4  -4 3656.06 155.541   8
   0   4  -4 3539.52 166.900   3
   0  -4   3 113.405 30.1950   7
   0   4  -3 92.3419 41.9112   8
   0   4  -2 7203.20 214.924   8
   0   4  -2 7130.72 104.148   4
   0   4  -2 6866.25 211.782   5
   0  -4   2 7029.19 195.050   7
   0   4  -1 6722.68 160.911   4
   0   4  -1 6619.89 200.309   5
   0   4  -1 6809.11 210.833   8
   0   4   0 55119.8 554.318   4
   0   4   1 68355.1 719.037   4
   0   4   2 836.735 98.7783   4
   0   4   3 3048.19 199.302   4
   0   4   4 600.720 105.898   4
   0   4   4 371.040 76.2535  32
   0   4   4 513.074 88.3759  11
   0   4   5 655.688 94.6465  28
   0   4   5 556.957 99.5475  32
   0   4   5 499.301 91.5636  11
   0   4   6 374.655 87.7452  11
   0   4   6 210.979 61.7024  28
   0   4   7 7.02593 40.7537  28
   0   4   7 37.1851 47.6681  11
   0   4   8 1462.58 97.2107  11
   0   5 -11 2373.33 133.712  34
   0   5 -11 2240.79 129.741  30
   0   5 -11 2518.08 141.828  18
   0   5 -10 24.2192 45.6916   9
   0   5 -10 30.2537 55.8799  18
   0   5 -10 67.2546 59.7723  30
   0   5  -9 689.507 98.8350  36
   0   5  -9 670.068 109.473  18
   0   5  -9 636.875 94.0621   9
   0   5  -9 656.250 103.601  30
   0   5  -8 4948.45 244.891  36
   0   5  -8 4883.93 239.516   9
   0   5  -8 4818.34 224.602  20
   0   5  -8 5158.42 262.696  18
   0   5  -7 3955.61 212.497  36
   0   5  -7 4159.71 267.206   1
   0   5  -7 3968.95 221.190  18
   0   5  -7 4126.82 206.557  20
   0   5  -7 4214.35 224.491   5
   0   5  -6 176.452 56.3076   5
   0   5  -5 2016.00 147.373   5
   0   5  -4 4794.95 206.422   8
   0   5  -4 4777.95 216.091   5
   0  -5   3 49403.5 572.558   7
   0   5  -3 49614.9 653.749   8
   0   5  -3 49442.8 663.248   5
   0  -5   2 3160.16 155.463   7
   0   5  -2 3197.20 166.607   5
   0   5  -2 3101.40 165.961   8
   0   5  -1 9370.59 225.275   4
   0  -5   1 9157.83 282.243   7
   0   5   0 5037.80 194.721   4
   0   5   1 634.836 82.5003   4
   0   5   2 1004.86 115.389   4
   0   5   3 9529.53 380.951   4
   0   5   3 9019.96 316.525  11
   0   5   4 1559.85 143.484  11
   0   5   5 96.5918 58.6301  11
   0   5   6 191.864 67.3542  11
   0   5   7 114.306 46.6249  11
   0   6 -11 233.207 51.2054  18
   0   6 -11 197.339 47.2034  34
   0   6 -11 292.260 56.3096  30
   0   6 -10 90.4816 61.3133  18
   0   6 -10 57.3917 48.1383  34
   0   6 -10 50.2193 57.0960  30
   0   6  -9 6986.62 284.356  36
   0   6  -9 6960.55 295.263  30
   0   6  -9 6560.78 254.686  20
   0   6  -9 6912.09 286.401  34
   0   6  -9 6472.56 288.603  18
   0   6  -8 17820.6 481.553  18
   0   6  -8 18438.4 456.816  20
   0   6  -8 18112.2 473.324  36
   0   6  -7 533.059 83.2693  22
   0   6  -7 509.989 90.6461   5
   0   6  -7 659.278 88.9733  24
   0   6  -7 527.866 87.9137  18
   0   6  -7 562.408 90.1949  20
   0   6  -7 519.432 84.3026  31
   0   6  -7 565.359 88.7647  36
   0   6  -7 639.741 95.7211  34
   0   6  -6 1372.93 127.411  36
   0   6  -6 1357.76 123.428  20
   0   6  -6 1294.66 139.460   5
   0   6  -5 3192.24 202.001   5
   0   6  -4 10794.1 358.144   5
   0   6  -3 43454.0 692.370   5
   0  -6   3 43865.0 626.860   7
   0   6  -2 5051.63 234.210   5
   0  -6   2 5145.17 228.774   7
   0  -6   1 7025.58 284.080   7
   0  -6   0 1576.28 150.750   7
   0   6   1 6808.14 291.411   4
   0   6   2 5285.45 237.142  11
   0   6   2 5673.81 294.771   4
   0   6   3 2124.41 161.155  11
   0   6   4 11520.0 360.242  11
   0   6   5 9.73782 32.5524  12
   0   6   5 18.2828 43.3011  11
   0   6   6 436.797 64.0165  11
   0   7 -11 76.2173 31.9441  34
   0   7 -11 18.5264 32.0454  30
   0   7 -11 4.84523 28.5271  18
   0   7 -10 63.2746 38.3404  20
   0   7 -10 11.0071 48.0538  30
   0   7 -10-1.91678 45.9669  18
   0   7 -10-6.87366 40.9728  34
   0   7  -9 1398.61 141.028  36
   0   7  -9 1285.67 128.644  34
   0   7  -9 1287.45 125.876  20
   0   7  -9 1295.37 136.693  30
   0   7  -9 1271.13 133.318  18
   0   7  -8 23586.6 536.932  36
   0   7  -8 23989.4 497.070  31
   0   7  -8 23691.7 477.686  24
   0   7  -8 23525.5 526.033  30
   0   7  -8 23360.6 535.577  18
   0   7  -8 24232.8 522.522  34
   0   7  -8 24103.2 531.248  20
   0   7  -7 2805.04 182.237  34
   0   7  -7 3216.62 189.336  22
   0   7  -7 2807.13 189.171  36
   0   7  -7 3029.39 191.419  31
   0   7  -7 2894.25 193.626  20
   0   7  -7 2827.36 179.354  24
   0   7  -7 3015.02 197.100  18
   0   7  -6 7888.36 306.127  18
   0   7  -6 7680.16 342.196   5
   0   7  -6 7349.54 295.049  20
   0   7  -6 7100.41 292.658  31
   0   7  -6 7651.38 295.274  36
   0   7  -6 7824.39 282.666  21
   0   7  -6 7672.08 291.233  34
   0   7  -6 7508.06 284.580  22
   0   7  -5 172.982 50.6995  19
   0   7  -5 315.457 65.8011  34
   0   7  -5 286.288 70.1128  23
   0   7  -5 206.851 58.7654  36
   0   7  -5 237.205 66.8046  21
   0   7  -5 259.119 67.6358  22
   0   7  -5 221.885 72.7790   5
   0   7  -5 272.616 67.8363  31
   0   7  -5 189.171 58.5702  20
   0   7  -4 2202.57 181.519   5
   0   7  -4 2196.14 158.608  31
   0   7  -4 2147.83 146.883  21
   0   7  -4 2267.04 158.455  23
   0   7  -4 2360.84 158.050  22
   0  -7   3 2395.67 167.285   7
   0   7  -3 2845.40 197.096   5
   0  -7   2 2951.48 201.326   7
   0   7  -1 137.640 58.2674  12
   0   7  -1 57.7899 47.9643  37
   0   7  -1 96.9710 53.7250  19
   0   7  -1 143.580 58.6691  23
   0  -7   1 181.373 67.9591   7
   0   7  -1 168.751 135.427  35
   0   7   0 354.480 141.476  35
   0  -7   0 332.137 83.1475   7
   0   7   0 517.156 81.1032  19
   0   7   0 478.841 75.6385  23
   0   7   0 458.521 82.9886  37
   0   7   0 552.164 89.0187  12
   0   7   1 3441.88 177.741  19
   0   7   1 3325.25 200.410  12
   0   7   2 253.476 74.2619  12
   0   7   3 12179.9 342.349  11
   0   7   3 12497.2 356.348  12
   0   7   4 1528.42 117.072  11
   0   7   4 1373.51 106.323  12
   0   7   5 10.6656 31.9635  11
   0   8 -10 2167.49 120.793  20
   0   8 -10 2244.46 132.869  30
   0   8  -9 13423.8 353.929  20
   0   8  -9 13083.3 345.919  30
   0   8  -9 12971.2 358.016  36
   0   8  -9 13164.1 329.495  34
   0   8  -8 23.7606 47.8729  24
   0   8  -8 128.764 68.6738  20
   0   8  -8 101.483 65.9860  31
   0   8  -8 43.3200 47.5034  34
   0   8  -8 52.1765 53.1551  30
   0   8  -8 54.4598 57.3545  36
   0   8  -7 142.395 62.7823  31
   0   8  -7 33.2260 48.8075  22
   0   8  -7 44.5260 63.9931  24
   0   8  -7 141.503 64.7132  36
   0   8  -7 152.918 67.9576  20
   0   8  -6 171.626 72.2272  21
   0   8  -6 91.8325 62.4014  22
   0   8  -6 148.934 58.8725  36
   0   8  -6 70.4743 56.6109  20
   0   8  -6 118.206 60.1559  31
   0   8  -5 850.539 113.585  23
   0   8  -5 782.424 103.632  22
   0   8  -5 817.202 111.667  31
   0   8  -5 786.408 103.157  21
   0   8  -5 792.849 97.5816  19
   0   8  -5 760.483 105.738  20
   0   8  -4 517.762 74.9413  14
   0   8  -4 488.554 90.5280  22
   0   8  -4 536.115 95.5601  23
   0   8  -4 616.220 92.7886  12
   0   8  -4 502.786 85.7408  31
   0   8  -4 573.867 87.9038  20
   0   8  -4 576.561 85.0557  19
   0   8  -4 462.414 84.9833  21
   0   8  -3 7794.17 303.358  23
   0   8  -3 7170.44 290.857  31
   0   8  -3 7720.36 286.626  21
   0   8  -3 7406.32 280.961  19
   0   8  -3 7462.18 280.367  12
   0   8  -2 46374.6 722.646  23
   0   8  -2 47827.7 708.582  31
   0   8  -2 47653.3 709.314  19
   0   8  -2 46724.2 710.029  12
   0   8  -1 5547.75 249.158  23
   0   8  -1 5158.67 247.654  12
   0   8  -1 5296.16 240.703  19
   0   8   0-14.3214 61.3534  12
   0   8   0 75.7691 47.2741  23
   0   8   1 329.582 81.6663  12
   0   8   2 127.395 56.0602  12
   0   8   3 56.7383 42.8711  12
   0   8   4 1913.17 86.9763  12
   0   9 -10 243.797 44.3679  20
   0   9  -9 741.019 71.4409  30
   0   9  -9 507.966 73.9666  20
   0   9  -8 2541.67 150.713  24
   0   9  -8 2904.36 174.273  20
   0   9  -7 1041.49 109.284  22
   0   9  -7 1101.00 107.327  36
   0   9  -7 1052.00 117.308  31
   0   9  -7 1068.53 116.775  20
   0   9  -7 1057.27 110.735  24
   0   9  -6 280.325 80.7016  21
   0   9  -6 139.826 57.1070  20
   0   9  -6 208.974 69.0235  31
   0   9  -6 184.692 63.4942  22
   0   9  -6 201.212 55.0717  36
   0   9  -5 70.7794 64.4478  21
   0   9  -5-24.7093 49.9977  20
   0   9  -5 20.1156 54.0169  22
   0   9  -5 30.2325 57.8035  23
   0   9  -5 19.8194 51.2325  31
   0   9  -4 707.496 90.0962  20
   0   9  -4 646.478 98.2207  31
   0   9  -4 703.281 105.820  23
   0   9  -4 747.288 103.421  21
   0   9  -4 738.098 99.1856  19
   0   9  -4 620.321 99.8041  22
   0   9  -3 7737.34 287.536  21
   0   9  -3 8424.57 313.600  22
   0   9  -3 7816.52 292.243  31
   0   9  -3 8114.09 295.882  19
   0   9  -3 8302.37 312.908  23
   0   9  -3 8450.69 298.004  12
   0   9  -2 10809.0 343.487  23
   0   9  -2 10496.8 328.579  21
   0   9  -2 11599.3 351.949  12
   0   9  -1 15427.9 385.120  23
   0   9  -1 15699.5 407.654  12
   0   9  -1 16065.4 383.970  21
   0   9   0 498.336 85.2903  12
   0   9   0 381.247 64.1814  21
   0   9   1-1.05661 40.6278  12
   0   9   1-69.2498 43.6055  21
   0   9   2 500.244 64.2778  12
   0   9   3 20.2088 20.6650  22
   0   9   3-3.88568 20.8812  12
   0  10  -9 54.0315 32.4893  20
   0  10  -8 91.5421 45.3056  20
   0  10  -8 111.395 43.1440  24
   0  10  -7 605.783 80.7036  24
   0  10  -7 509.965 72.7028  22
   0  10  -7 606.324 79.9660  20
   0  10  -6-27.2366 45.0714  20
   0  10  -6 37.3221 51.7693  31
   0  10  -6-12.2982 45.1137  22
   0  10  -5-29.3879 53.1712  31
   0  10  -5-2.28530 55.8171  22
   0  10  -5 15.7883 40.9071  20
   0  10  -4-18.4363 62.3280  23
   0  10  -4-22.0874 62.0302  31
   0  10  -4 27.3632 52.5616  21
   0  10  -4 15.9275 57.2608  22
   0  10  -3-18.3632 49.4794  21
   0  10  -3 8.95348 51.8902  23
   0  10  -3 23.7547 52.3937  22
   0  10  -2 1711.42 132.605  22
   0  10  -2 1729.49 123.417  23
   0  10  -2 1673.58 126.586  12
   0  10  -2 1456.55 111.494  21
   0  10  -1 4.10194 47.5410  12
   0  10  -1-8.07962 38.4332  21
   0  10  -1 2.68468 44.1703  22
   0  10  -1 31.8423 37.0146  23
   0  10   0 34.7950 26.9247  21
   0  10   0 41.8940 39.4200  12
   0  10   0-32.0590 41.4999  22
   0  10   1 2114.42 99.7571  12
   0  10   1 1901.06 93.9840  22
   0  11  -8 920.027 58.2320  20
   0  11  -8 905.578 59.6243  24
   0  11  -7 407.660 47.5292  20
   0  11  -7 380.223 52.3236  24
   0  11  -6 1741.11 106.956  24
   0  11  -6 1600.79 100.348  22
   0  11  -5 121.142 45.4630  22
   0  11  -5 84.9159 38.3861  24
   0  11  -4 1126.96 90.9431  22
   0  11  -3-20.8562 34.5622  22
   0  11  -3 123.910 43.1703  21
   0  11  -2 960.516 75.6758  22
   0  11  -2 936.776 61.4204  21
   0  11  -1 127.055 30.2301  22
  -1  12  -4 14.3343 21.0880  22
  -1  12  -5 418.443 41.2714  22
  -1  11   0 6.70678 20.7149  22
  -1  11  -1 22.8500 30.8279  22
  -1  11  -1-15.3180 29.9708  21
  -1  11  -2 238.031 51.3770  22
  -1  11  -2 287.527 54.1630  21
  -1  11  -3 102.359 48.0161  21
  -1  11  -3 122.721 43.0436  24
  -1  11  -3 78.4458 46.8344  22
  -1  11  -4 1648.17 115.095  21
  -1  11  -4 1727.57 118.707  22
  -1  11  -4 1508.37 108.964  24
  -1  11  -5 1095.64 94.8325  24
  -1  11  -5 987.687 92.0369  22
  -1  11  -6 523.326 66.0044  22
  -1  11  -6 636.856 72.7513  24
  -1  11  -6 525.772 57.9743  20
  -1  11  -7 1466.56 94.1954  24
  -1  11  -7 1407.26 88.0490  20
  -1  11  -8 91.2916 29.1052  20
  -1  10   2 651.074 49.6162  22
  -1  10   2 788.210 65.1313  12
  -1  10   1-7.98906 31.5262  22
  -1  10   1-34.2861 33.5939  21
  -1  10   1 16.9241 37.6012  12
  -1  10   0 875.538 92.6598  12
  -1  10   0 621.178 76.6085  21
  -1  10   0 671.468 81.2880  22
  -1  10  -1 49.9228 51.4412  12
  -1  10  -1-45.9654 57.5459  21
  -1  10  -1 11.7626 48.2466  22
  -1  10  -2 1110.19 111.630  19
  -1  10  -2 1091.55 107.148  12
  -1  10  -2 891.711 104.508  22
  -1  10  -2 942.501 106.142  21
  -1  10  -3 648.145 96.3461  22
  -1  10  -3 735.572 98.7324  21
  -1  10  -3 732.614 95.3542  19
  -1  10  -3 958.108 97.2569  12
  -1  10  -4 1097.75 116.931  22
  -1  10  -4 1294.82 117.415  19
  -1  10  -4 1154.92 118.296  21
  -1  10  -5 1447.52 126.819  21
  -1  10  -5 1408.02 128.830  22
  -1  10  -5 1404.18 128.104  24
  -1  10  -5 1277.19 112.573  20
  -1  10  -6 6001.46 235.151  20
  -1  10  -6 5801.37 237.194  24
  -1  10  -6 5795.15 233.123  22
  -1  10  -7-43.3292 45.6114  24
  -1  10  -7 17.9488 44.0349  22
  -1  10  -7 20.8776 39.4811  20
  -1  10  -8 246.199 51.4851  24
  -1  10  -8 302.765 59.9649  20
  -1  10  -9 14.4673 29.4337  20
  -1   9   4 17.4116 20.3550  12
  -1   9   3 1331.52 96.9849  12
  -1   9   2 9.07597 43.8521  12
  -1   9   1 935.063 109.365  12
  -1   9   0 3977.80 197.162  19
  -1   9   0 3872.78 215.389  12
  -1   9  -1 29992.5 557.530  19
  -1   9  -1 29228.0 536.621  23
  -1   9  -1 29396.5 561.043  12
  -1   9  -2 16081.8 403.925  31
  -1   9  -2 14802.6 414.601  22
  -1   9  -2 15811.3 410.903  12
  -1   9  -2 16084.4 420.068  19
  -1   9  -2 15972.6 419.589  23
  -1   9  -3 4769.84 231.141  19
  -1   9  -3 4186.74 219.626  21
  -1   9  -3 4855.22 219.222  12
  -1   9  -3 4628.29 221.567  14
  -1   9  -3 4438.09 234.407  22
  -1   9  -3 4821.46 238.593  31
  -1   9  -3 4492.60 232.853  23
  -1   9  -4 432.932 80.0598  19
  -1   9  -4 541.544 92.3868  31
  -1   9  -4 360.709 71.9595  14
  -1   9  -4 378.373 84.7288  22
  -1   9  -4 304.316 67.2313  20
  -1   9  -4 301.707 77.6985  23
  -1   9  -4 279.861 72.8340  21
  -1   9  -5 4824.98 234.999  20
  -1   9  -5 4944.16 230.518  21
  -1   9  -5 4621.33 209.596  14
  -1   9  -5 4773.35 214.325  19
  -1   9  -5 5294.38 248.859  22
  -1   9  -5 5040.29 250.559  31
  -1   9  -6 316.548 75.0757  24
  -1   9  -6 284.235 80.5585  21
  -1   9  -6 259.613 71.6398  31
  -1   9  -6 232.317 70.4543  22
  -1   9  -6 276.321 68.3956  20
  -1   9  -7 552.386 87.1955  24
  -1   9  -7 692.423 96.2197  22
  -1   9  -7 597.420 92.6828  20
  -1   9  -8 599.531 72.3734  30
  -1   9  -8 563.669 78.6603  24
  -1   9  -8 666.543 91.5555  20
  -1   9  -9 15.6914 35.7508  20
  -1   9 -10 85.7793 26.5723  20
  -1   8   5 1112.70 66.6997  12
  -1   8   4 110.339 38.8780  11
  -1   8   4 71.6719 43.4728  12
  -1   8   3-70.2480 105.848  35
  -1   8   3 328.951 71.8043  12
  -1   8   2 1584.84 145.042  12
  -1   8   2 111.928 115.152  35
  -1   8   1 72.3008 120.218  35
  -1   8   1-78.1522 78.4235  12
  -1   8   1 49.4305 42.2928  19
  -1   8   1 4.86227 45.6820  37
  -1   8   0 52963.9 760.729  37
  -1   8   0 54620.2 871.551  35
  -1   8   0 53970.3 783.081  12
  -1   8   0 53097.3 710.457  23
  -1   8   0 51428.3 721.188  19
  -1   8  -1 55600.0 773.917  37
  -1   8  -1 53969.5 760.962  12
   1  -8   1 54515.3 897.002   7
  -1   8  -1 54393.9 754.953  19
  -1   8  -1 54210.2 746.422  23
  -1   8  -2 137.422 55.8022  19
  -1   8  -2 52.4410 50.3341  37
  -1   8  -2 308.304 67.3030  14
  -1   8  -2 100.334 56.3517  23
  -1   8  -2 246.617 87.5985  29
  -1   8  -2 187.156 64.3922  31
  -1   8  -2 113.792 51.9171  12
  -1   8  -3 1740.86 136.902  14
  -1   8  -3 1909.01 149.944  22
  -1   8  -3 1700.68 133.420  37
  -1   8  -3 2050.38 148.143  20
  -1   8  -3 1734.90 130.758  12
  -1   8  -3 1688.06 136.478  19
  -1   8  -3 1956.49 155.979  31
  -1   8  -3 2057.65 158.027  23
  -1   8  -4-63.5370 39.0386  19
  -1   8  -4-47.5201 53.3953  23
  -1   8  -4 52.8502 47.6187  20
  -1   8  -4-13.8480 36.2530  14
  -1   8  -4-149.612 61.6420  21
  -1   8  -4 16.5771 48.0928  31
  -1   8  -4 2.18877 50.2820  22
  -1   8  -5 3103.00 200.224  31
  -1   8  -5 3234.60 197.744  20
  -1   8  -5 3123.49 184.326  21
  -1   8  -5 2882.19 168.911  14
  -1   8  -5 3141.49 173.054  19
  -1   8  -5 2817.45 173.763  36
  -1   8  -5 3129.81 191.859  22
  -1   8  -6 22.3725 58.7973  34
  -1   8  -6-11.5864 60.9089  24
  -1   8  -6 125.512 56.2701  36
  -1   8  -6 106.013 56.1411  31
  -1   8  -6-4.97398 48.4892  22
  -1   8  -6 113.977 70.7741  21
  -1   8  -6 51.8521 51.2283  20
  -1   8  -7 13302.8 377.872  22
  -1   8  -7 12068.8 396.430  18
  -1   8  -7 12669.1 375.695  24
  -1   8  -7 13329.9 399.479  20
  -1   8  -7 12324.3 377.507  36
  -1   8  -7 12812.0 393.966  34
  -1   8  -7 12812.0 367.638  30
  -1   8  -8 1890.88 149.981  30
  -1   8  -8 1929.17 161.955  18
  -1   8  -8 1839.44 138.847  24
  -1   8  -8 1662.47 146.432  34
  -1   8  -8 1849.54 152.618  20
  -1   8  -9 2380.45 157.213  18
  -1   8  -9 2157.53 146.009  30
  -1   8  -9 2276.55 141.564  20
  -1   8  -9 2372.07 153.350  34
  -1   8 -10 130.906 36.4144  20
  -1   7   6 123.739 27.8758  12
  -1   7   6 161.679 41.5129  11
  -1   7   5 421.764 69.6151  12
  -1   7   5 543.608 76.5104  11
  -1   7   4 2149.99 151.660  11
  -1   7   4 64.5080 104.952  35
  -1   7   3 122.834 114.025  35
  -1   7   3 2523.13 166.313  11
  -1   7   2 1864.36 137.827  37
  -1   7   2 25.3509 129.965  35
  -1   7   1 11394.7 339.719  37
  -1   7   1 11563.9 324.969  19
  -1   7   0 49149.5 694.614  37
   1  -7   0 49546.7 840.283   7
  -1   7   0 49789.7 679.936  19
   1  -7   1 31029.2 615.652   7
  -1   7  -2 5586.55 275.302   8
  -1   7  -3 1209.61 135.750   8
  -1   7  -4-99.3502 53.5230   5
  -1   7  -4 120.690 48.2979   8
  -1   7  -5 2713.66 176.909  31
  -1   7  -5 2447.60 164.450  22
  -1   7  -5 2451.20 155.807  21
  -1   7  -5 2520.02 171.481  34
  -1   7  -5 2629.34 175.273  20
  -1   7  -5 2725.81 171.199  36
  -1   7  -5 2419.94 176.822  18
  -1   7  -5 2551.79 190.561   5
  -1   7  -6 351.653 80.1386  34
  -1   7  -6 348.889 76.0908  24
  -1   7  -6 343.006 71.6660   5
  -1   7  -6 439.104 90.0764  18
  -1   7  -6 433.598 86.8606  20
  -1   7  -6 407.843 80.9827  22
  -1   7  -6 467.650 85.0726  31
  -1   7  -6 416.515 86.8978  36
  -1   7  -6 363.458 75.0778  30
  -1   7  -6 581.213 90.2441  21
  -1   7  -7 112.974 77.1961  18
  -1   7  -7 220.303 73.1422  22
  -1   7  -7 21.7916 62.4704  24
  -1   7  -7 39.0464 65.9970  30
  -1   7  -7 25.3755 59.0066  20
  -1   7  -7 79.6846 72.2598  36
  -1   7  -8 56767.2 853.151  18
  -1   7  -8 57840.2 819.906  36
  -1   7  -8 56576.8 824.052  34
  -1   7  -8 56637.3 819.181  30
  -1   7  -8 55838.8 779.854  20
  -1   7  -8 57698.2 736.787  24
  -1   7  -9 827.322 106.675  34
  -1   7  -9 565.715 78.8149  20
  -1   7  -9 921.156 111.014  30
  -1   7  -9 617.407 101.215  18
  -1   7 -10 160.430 54.5145  30
  -1   7 -10 180.439 53.8735  34
  -1   7 -10 91.3514 52.0478  18
  -1   7 -11-10.2709 23.1185  34
  -1   7 -11 9.59869 23.2701  18
  -1   6   7 449.493 59.3074  11
  -1   6   6 782.279 95.7816  11
  -1   6   5 13819.0 396.029  11
  -1   6   4 127.891 61.7200  11
  -1   6   3 564.956 92.0022  11
  -1   6   3 557.125 93.2351   4
  -1   6   2 794.104 109.587   4
  -1   6   1 21484.1 480.572   4
  -1   6   0 3891.80 179.535   4
  -1   6   0 3604.66 199.343   8
  -1   6  -1 15952.1 413.567   8
   1  -6   2 52047.9 632.497   7
  -1   6  -2 51982.9 746.772   8
  -1   6  -3 47208.3 713.348   8
  -1   6  -3 45576.6 696.343   5
  -1   6  -4 12507.4 371.184   5
  -1   6  -4 12260.9 366.814   8
  -1   6  -5 8859.36 322.596   5
  -1   6  -5 9602.33 326.591   8
  -1   6  -6 15686.9 400.812  22
  -1   6  -6 15925.7 428.823  34
  -1   6  -6 15140.8 410.696  36
  -1   6  -6 15543.8 410.427  30
  -1   6  -6 15394.8 432.950  18
  -1   6  -6 15292.5 406.564  20
  -1   6  -6 15937.3 403.855  31
  -1   6  -6 15108.3 427.812   5
  -1   6  -6 15475.8 390.886  24
  -1   6  -7 15028.2 426.213  36
  -1   6  -7 14931.5 411.116  20
  -1   6  -7 14971.9 389.199  24
  -1   6  -7 15204.9 431.925  30
  -1   6  -7 15175.6 449.729  18
  -1   6  -8 1844.20 146.887  20
  -1   6  -8 1721.92 145.573   9
  -1   6  -8 1510.17 151.789  30
  -1   6  -8 1857.25 169.391  18
  -1   6  -8 1794.12 156.622  36
  -1   6  -9 2935.94 158.393  20
  -1   6  -9 2912.63 189.548  30
  -1   6  -9 2666.18 183.332  34
  -1   6  -9 2966.44 195.731  18
  -1   6 -10 83.7755 49.8850  30
  -1   6 -10 16.8091 50.5479  18
  -1   6 -10 49.1294 51.6319  34
  -1   6 -11 76.9352 34.2439  18
  -1   6 -11 91.2867 34.6380  34
  -1   5   8 1835.12 104.467  11
  -1   5   7 367.174 75.7404  11
  -1   5   6 2641.93 182.058  11
  -1   5   5 2318.10 179.883  32
  -1   5   5 2247.14 174.395  11
  -1   5   4 6288.30 278.304  32
  -1   5   4 6773.96 334.684   4
  -1   5   4 6158.89 269.352  11
  -1   5   3 582.519 95.1790   4
  -1   5   2 158.443 53.7072   4
  -1   5   1 11377.8 305.479   8
  -1   5   1 11397.1 309.219   4
  -1   5   0 1587.13 118.672   8
  -1   5   0 1532.85 100.583   4
  -1   5  -1 5033.11 204.725   8
  -1   5  -1 5127.95 150.546   4
  -1   5  -2 199131. 1294.61   8
  -1   5  -2 198852. 1264.29   5
  -1   5  -3 76961.9 800.488   5
  -1   5  -3 78975.2 817.943   8
  -1   5  -4 2663.03 156.768   5
  -1   5  -4 2786.69 156.508   8
  -1   5  -5 6317.19 234.781   8
  -1   5  -5 6158.69 244.314   5
  -1   5  -6 616.891 82.4411   5
  -1   5  -6 613.599 110.069   1
  -1   5  -7 76.3416 52.4246  36
  -1   5  -7 53.8453 39.5229  24
  -1   5  -7-100.745 73.2963   1
  -1   5  -7-43.5309 51.1180  30
  -1   5  -7 78.3027 46.6197  20
  -1   5  -7 114.502 62.9632  18
  -1   5  -7-10.0080 38.5416   9
  -1   5  -8 4892.29 248.513   9
  -1   5  -8 4881.68 253.358  30
  -1   5  -8 4485.47 229.416  36
  -1   5  -8 4908.32 263.357  18
  -1   5  -9 4455.25 231.286  30
  -1   5  -9 4254.36 238.741  18
  -1   5  -9 4070.85 221.426   9
  -1   5 -10 1160.94 118.813  18
  -1   5 -10 1169.52 110.869  30
  -1   5 -11 33.0580 32.6335  18
  -1   5 -11 50.7428 33.9617  34
  -1   4   9 1921.73 93.6142  11
  -1   4   8 64.1325 49.0559  11
  -1   4   7 2628.39 187.765  32
  -1   4   7 2370.27 175.568  11
  -1   4   6 3.56501 57.8788  11
  -1   4   6 92.8686 64.7876  32
  -1   4   5 1329.92 132.421  11
  -1   4   5 1348.92 136.860  32
  -1   4   5 1388.23 151.785   4
  -1   4   4 1017.29 125.469   4
  -1   4   3 20314.5 473.899   4
  -1   4   2 2873.42 134.884   8
  -1   4   2 3118.05 163.914   4
  -1   4   1 4169.88 164.323   4
  -1   4   1 1710.81 105.445   8
  -1   4   0 13712.1 290.374   8
  -1   4   0 13615.6 254.388   4
  -1   4  -1 3817.33 155.775   8
  -1   4  -1 3542.25 105.505   4
  -1   4  -1 3423.64 143.132   5
   1  -4   2 202829. 605.180   2
  -1   4  -2 202788. 1125.99   8
   1  -4   2 203752. 838.937   7
  -1   4  -2 203087. 1106.77   5
  -1   4  -3 34670.8 471.779   5
  -1   4  -3 35113.1 475.208   8
  -1   4  -4 33261.3 562.047   1
  -1   4  -4 32885.4 467.276   8
  -1   4  -4 32346.0 476.779   5
  -1   4  -5 4375.50 183.853   5
  -1   4  -5 4254.17 225.803   1
  -1   4  -6 3040.53 213.519   1
  -1   4  -7 16677.9 534.404   1
  -1   4  -7 16185.0 429.827  30
  -1   4  -7 15172.8 398.144  36
  -1   4  -7 16532.5 458.504  18
  -1   4  -7 15466.5 431.692   9
  -1   4  -8 1477.73 129.327  36
  -1   4  -8 1411.54 148.543  18
  -1   4  -8 1371.65 142.013   9
  -1   4  -8 1532.68 143.994  30
  -1   4  -9 1987.82 164.457   9
  -1   4  -9 1792.55 162.492  18
  -1   4  -9 1934.79 154.813  30
  -1   4 -10 169.913 54.0984  30
  -1   4 -10 82.4234 57.7887  18
  -1   4 -10 131.231 57.4383   9
  -1   4 -11 116.828 37.9885  18
   1  -4  11 125.474 36.7780  28
  -1   4 -11 111.447 36.6241  34
  -1   3   9 40.4172 35.4086  11
  -1   3   8 6631.88 281.251  32
  -1   3   8 6681.21 269.399  11
  -1   3   8 6067.17 236.001  28
  -1   3   7 3092.67 187.315  28
  -1   3   7 3432.49 211.277  11
  -1   3   7 3410.00 217.550  32
  -1   3   6 2974.49 226.665   4
  -1   3   6 2571.21 181.423  11
  -1   3   6 2685.78 188.072  32
  -1   3   5 14028.3 443.698   4
  -1   3   4 22268.9 497.676   4
  -1   3   3 150076. 1137.59   4
  -1   3   2 442095. 1686.33   4
  -1   3   2 445280. 1358.03   8
  -1   3   1 26781.8 356.178   4
  -1   3   1 25991.2 335.473   8
  -1   3   0 113007. 615.767   4
  -1   3   0 113899. 705.427   8
  -1   3  -1 124797. 510.681   4
  -1   3  -1 124718. 721.246   5
   1  -3   1 124465. 543.717   2
  -1   3  -2 72730.7 628.475   1
  -1   3  -2 73008.2 566.569   5
   1  -3   2 72492.3 403.921   2
   1  -3   2 73541.2 349.549   7
  -1   3  -2 73355.3 575.721   8
  -1   3  -3 30698.9 382.384   5
  -1   3  -3 31285.6 450.281   1
   1  -3   3 30329.4 208.324   4
  -1   3  -3 30538.8 382.134   8
   1  -3   3 30838.1 312.476   2
  -1   3  -4 20893.7 419.213   1
  -1   3  -4 21291.8 335.839   5
  -1   3  -4 21609.6 322.896   8
  -1   3  -5 7442.52 207.051   5
  -1   3  -5 7827.32 293.100   1
  -1   3  -6 7292.71 319.532   1
  -1   3  -7 3551.40 211.932   9
  -1   3  -7 3353.20 180.610  36
  -1   3  -7 3529.37 243.250   1
  -1   3  -7 3596.05 201.214  30
  -1   3  -8 268.478 81.1665  18
  -1   3  -8 171.765 65.7249   9
  -1   3  -8 232.752 67.8172  30
  -1   3  -9 1650.43 154.236   9
  -1   3  -9 1602.84 152.310  18
  -1   3  -9 1603.25 133.417  30
  -1   3 -10 255.205 65.2970  18
  -1   3 -10 252.466 64.7106   9
   1  -3  11 104.395 32.5910  28
   1  -3  11 94.6169 31.1530  16
  -1   3 -11 105.164 33.1358  18
  -1   2  10 362.703 43.5197  11
  -1   2  10 519.144 52.1850  28
   1  -2  -9 3862.54 178.694   9
  -1   2   9 3756.44 183.068  11
  -1   2   9 3915.40 202.560  32
  -1   2   9 3934.24 187.833  28
  -1   2   8 531.126 101.439  32
  -1   2   8 554.861 95.3658  11
   1  -2  -8 618.703 93.1621   9
   1  -2  -7 24386.7 519.716   9
  -1   2   7 24828.1 544.063  11
  -1   2   7 25414.1 568.389  32
  -1   2   6 22056.0 561.557   4
  -1   2   5 34703.7 628.822   4
  -1   2   4 54149.7 690.632   4
  -1   2   3 25365.4 409.361   4
  -1   2   2 17462.1 292.401   4
  -1   2   2 17762.3 215.681   8
  -1   2   1 409022. 1169.18   4
  -1   2   1 410717. 1071.16   8
  -1   2   0 109245. 491.902   4
   1  -2   1 208000. 669.757   2
  -1   2  -1 206968. 829.184   1
   1  -2   2 4821.23 117.193   2
  -1   2  -2 4839.85 145.717   1
  -1   2  -2 4756.34 119.979   5
   1  -2   3 32526.3 367.378   2
  -1   2  -3 31911.1 326.458   5
  -1   2  -3 32854.7 444.943   1
  -1   2  -4 124347. 636.140   8
  -1   2  -4 124838. 1010.69   1
   1  -2   4 123640. 743.338   4
  -1   2  -4 125297. 671.815   5
  -1   2  -5 7241.42 282.900   1
   1  -2   5 8063.84 227.226   4
  -1   2  -6 3392.00 223.455   1
  -1   2  -7 563.154 90.4262   9
  -1   2  -7 662.897 116.239   1
  -1   2  -7 517.085 81.8738  30
  -1   2  -8 2504.03 162.665  30
  -1   2  -8 2631.91 191.326   9
  -1   2  -9 57.9779 58.9650  18
  -1   2  -9 90.0116 65.4381   9
  -1   2 -10 254.411 59.4913   9
  -1   2 -10 261.766 61.3981  18
   1  -2  11 398.217 40.5223  28
   1  -1 -11 102.433 28.5856  18
   1  -1 -10 1727.45 116.507   9
  -1   1  10 1985.78 125.294  28
  -1   1   9 185.940 64.4550  11
   1  -1  -9 206.762 66.4461   9
  -1   1   9 166.474 62.3480  32
  -1   1   8 137629. 1305.66  32
   1  -1  -8 136081. 1277.23   9
  -1   1   8 139146. 1244.09  11
   1  -1  -7 15336.4 414.613   9
  -1   1   7 15383.6 427.041  32
  -1   1   7 15182.9 403.190  11
  -1   1   7 14345.2 455.682   4
  -1   1   6 182.111 54.7292   4
  -1   1   5 1750.19 129.955   4
  -1   1   4 26541.0 426.601   4
  -1   1   3 2741.70 119.666   4
  -1   1   2 174026. 776.728   4
  -1   1   1 129427. 538.272   4
  -1   1   0 26770.5 170.785   6
   1  -1   0 27476.0 226.554   2
  -1   1  -1 234494. 558.132   5
   1  -1   1 234846. 744.178   2
  -1   1  -1 233352. 753.746   1
  -1   1  -2 36370.7 232.395   5
   1  -1   2 35950.3 360.255   2
  -1   1  -3 2434.60 65.1441   5
   1  -1   3 2369.40 114.121   2
   1  -1   3 2273.25 101.256   4
   1  -1   4 49299.1 550.117   4
   1  -1   5 22251.9 433.367   4
  -1   1  -6 2300.08 192.356   1
   1  -1   6 2532.98 169.979   4
  -1   1  -7 3605.39 216.975   9
  -1   1  -8 2063.55 169.091   9
  -1   1  -9 854.126 105.647  18
  -1   1  -9 688.428 95.8522   9
  -1   1 -10 1445.45 101.324  18
   1  -1  10 1552.33 97.4193  16
   1  -1  10 1619.41 110.224  28
   1   0 -11 217.991 48.8730  18
   1   0 -11 306.604 49.0056   9
  -1   0  11 232.278 43.6809  28
   1   0 -10 468.200 79.8498   9
  -1   0  10 562.327 78.0960  32
   1   0  -9 31013.4 616.262   9
  -1   0   9 30554.5 585.728  32
  -1   0   8 17936.5 461.860  32
   1   0  -8 18485.6 479.727   9
  -1   0   7 36877.5 655.329   4
  -1   0   6 17333.9 406.033   4
  -1   0   5 21466.3 394.303   4
  -1   0   4 142.787 35.8126   4
  -1   0   3 15384.5 237.143   4
  -1   0   3 14754.5 243.819   6
  -1   0   2 74417.3 418.114   4
  -1   0   1 69758.1 340.472   4
   1   0   0 115607. 473.467   2
  -1   0   0 115001. 416.370   7
   1   0   1 25564.4 281.532   2
   1   0   2 6780.01 178.322   2
   1   0   3 35208.8 452.194   4
   1   0   4 57961.9 672.001   4
   1   0   5 14847.6 396.333   4
   1   0   6 1511.39 149.037   4
  -1   0  -6 1986.25 155.656   9
   1   0   7 15377.7 402.772  11
  -1   0  -7 14551.8 423.442   9
   1   0   7 15293.9 415.864  32
  -1   0  -8 1925.58 152.948   9
   1   0   8 2000.64 139.432  11
   1   0   9 816.923 98.8623  28
  -1   0  -9 831.200 93.2095  18
   1   0   9 866.828 86.4832  16
  -1   0  -9 842.899 90.6817   9
  -1   0 -10 273.547 40.4495  18
   1   0  10 388.386 50.8303  28
   1   1 -11 29.6713 38.4991   9
   1   1 -11 79.6340 44.8591  18
  -1  -1  10 693.876 84.7084  32
   1   1 -10 664.262 100.979   9
   1   1  -9 2614.83 190.042   9
  -1  -1   9 2708.20 173.887  32
   1   1  -8 1539.38 146.261   9
  -1  -1   8 1385.50 128.834  32
   1   1  -8 1512.79 166.207   1
   1   1  -7 827.484 114.536   1
   1   1  -6 138.534 37.4018   3
  -1  -1   6-84.3110 32.5957   4
  -1  -1   5 2248.23 111.713   4
   1   1  -5 2241.73 117.640   3
  -1  -1   4 54175.4 448.757   4
  -1  -1   4 52702.7 490.336   6
   1   1  -3 73957.9 533.133   1
  -1  -1   3 73221.4 420.754   4
   1   1  -2 6649.13 122.149   1
  -1  -1   2 6841.11 143.728   7
   1   1  -1 95682.1 385.201   2
   1   1  -1 96380.1 456.061   3
   1   1   0 8186.95 147.706   2
   1   1   0 8184.19 113.715   3
   1   1   1 11742.1 220.131   2
   1   1   2 6123.80 186.963   4
   1   1   3 20379.2 392.582   4
   1   1   4 1949.65 145.393   4
   1   1   5 8466.90 332.283   4
  -1  -1  -6 202148. 1477.49   9
   1   1   6 204995. 1764.65   4
   1   1   6 200772. 1500.11  11
   1   1   6 201094. 1542.56  32
  -1  -1  -7 16873.2 435.411   9
   1   1   7 16785.4 433.431  11
   1   1   8 1479.86 134.422  28
  -1  -1  -8 1236.58 111.369   9
   1   1   8 1508.05 120.223  16
   1   1   8 1528.51 121.813  11
   1   1   9 1041.48 94.4619  28
  -1  -1  -9 1032.08 85.8227  18
   1   1   9 1014.13 73.2555  11
   1   2 -12 745.344 55.0682  18
  -1  -2  12 631.182 53.0439  28
   1   2 -11 83.8454 50.9303  18
   1   2 -11 88.0936 53.1167   9
   1   2 -10 1988.12 160.766   9
   1   2 -10 1938.60 136.142  30
   1   2  -9 83.6989 57.0954   9
   1   2  -8 1061.35 117.214   9
   1   2  -8 953.876 137.703   1
   1   2  -7 12917.0 415.656   1
   1   2  -6 47310.6 695.379   1
   1   2  -6 46616.3 607.556   3
   1   2  -5 10723.1 289.170   1
   1   2  -5 10373.8 264.463   3
  -1  -2   5 10226.3 237.570   6
   1   2  -4 24583.8 372.867   3
  -1  -2   4 24045.2 229.163   4
   1   2  -4 23545.8 365.255   1
   1   2  -3 13382.9 251.250   3
  -1  -2   3 13165.4 236.121   7
   1   2  -3 12622.9 231.401   1
   1   2  -2 112887. 304.308   2
  -1  -2   2 112704. 656.413   7
   1   2  -2 112452. 661.200   3
   1   2  -1 299373. 996.366   3
   1   2  -1 299829. 781.282   2
   1   2   0 170345. 689.288   5
   1   2   0 168686. 779.371   2
   1   2   1 9963.36 233.915   4
   1   2   2 26822.8 445.634   4
   1   2   3 10296.8 315.698   4
   1   2   4 22825.9 536.375   4
   1   2   5 79128.1 971.103  32
   1   2   5 80463.0 1106.61   4
   1   2   5 78822.3 945.701  11
   1   2   6 45642.0 739.302  11
   1   2   6 44900.9 752.942  28
   1   2   7 10977.3 347.525  11
   1   2   7 10956.2 359.145  28
   1   2   8 14.9264 43.3296  28
   1   2   8-14.5767 35.9276  11
   1   2   9 235.945 39.0065  28
   1   3 -12 21.8905 26.9028   9
   1   3 -12 201.758 39.6925  18
   1   3 -11 68.9728 48.0141   9
   1   3 -11 97.2076 52.2712  18
   1   3 -11 131.508 41.1534  30
   1   3 -10 499.239 94.0055   9
   1   3 -10 571.883 96.1265  18
   1   3 -10 523.609 87.1389  30
   1   3  -9 76.4304 43.7598  36
   1   3  -9-17.9455 54.4329   9
   1   3  -8 2891.27 187.500   9
   1   3  -8 2745.23 211.595   1
   1   3  -8 2805.17 173.112  36
   1   3  -7 736.732 113.547   1
   1   3  -7 668.566 86.4332   3
   1   3  -6 9455.91 295.264   3
   1   3  -6 9870.10 324.968   1
  -1  -3   5 3588.20 144.032   6
   1   3  -5 3579.88 168.354   3
   1   3  -5 3492.63 172.683   1
   1   3  -4 78.0056 38.5833   1
   1   3  -4 68.9359 39.6246   3
  -1  -3   3 17359.3 304.931   7
   1   3  -3 17751.9 324.095   3
  -1  -3   2 1747.14 100.335   7
   1   3  -2 1642.32 95.2036   3
  -1  -3   1 14237.1 289.998   7
   1   3  -1 14352.6 234.462   4
   1   3   0 35815.7 388.049   5
   1   3   0 37381.7 449.347   4
   1   3   1 189014. 1170.63   4
   1   3   2 9480.62 300.031   4
   1   3   3 2787.55 189.450   4
   1   3   4 12680.0 376.824  28
   1   3   4 13602.1 456.209   4
   1   3   4 13278.2 386.375  11
   1   3   5 5120.05 253.100  28
   1   3   5 5353.29 261.840  11
   1   3   6 15256.9 424.388  28
   1   3   6 15586.8 431.158  11
   1   3   7 66.9847 50.4544  28
   1   3   7-12.6727 47.9714  11
   1   3   8 55.8175 34.6440  11
   1   3   8 53.0733 32.7315  28
   1   4 -12 81.1271 31.3115  18
   1   4 -12 50.0203 24.9390  30
   1   4 -12 54.9658 26.6159  34
   1   4 -11 61.6867 47.2376  30
   1   4 -11 45.9633 50.5869  18
   1   4 -11 46.1650 48.4228   9
   1   4 -10-68.9347 51.5518   9
   1   4 -10-15.8004 50.1645  18
   1   4 -10 8.63475 34.9005  36
   1   4  -9 3089.90 203.518  18
   1   4  -9 2983.97 187.325  36
   1   4  -9 2701.91 185.544   9
   1   4  -8-0.87352 40.2940  36
   1   4  -8 34.0408 40.2751  20
   1   4  -8 7.16703 42.7303   9
   1   4  -8-24.1584 72.6616   1
   1   4  -8 33.6880 50.5019  18
   1   4  -7 11.5338 52.1813   1
   1   4  -7-12.8089 31.8494   3
   1   4  -6 1132.22 122.876   1
   1   4  -6 1198.35 117.892   3
   1   4  -5 10496.4 314.570   3
   1   4  -4 1027.67 98.8940   3
  -1  -4   4 1142.78 97.3223   7
  -1  -4   3 211.392 51.2216   7
   1   4  -3 198.083 52.1676   3
   1   4  -2 19892.5 263.532   4
  -1  -4   2 19453.4 374.986   7
   1   4  -1 7190.55 216.142   5
   1   4  -1 7261.44 197.240   4
  -1  -4   1 7074.03 239.331   7
   1   4   0 212209. 1233.27   4
   1   4   1 2664.32 163.233   4
   1   4   2 29952.4 605.826   4
   1   4   3 2045.07 178.123   4
   1   4   3 1751.24 144.546  11
   1   4   4 420.777 85.5979  11
   1   4   4 448.082 87.4620  28
   1   4   5 1176.19 122.683  28
   1   4   5 1092.44 126.080  11
   1   4   6 1104.53 109.406  28
   1   4   6 1226.26 121.584  11
  -1  -4  -7-4.17523 28.6847  25
   1   4   7 6.57191 29.5516  28
   1   4   7 6.28456 36.7558  11
   1   5 -12 195.333 35.0555  18
   1   5 -12 271.953 42.6486  30
   1   5 -11 1389.99 105.705   9
   1   5 -11 1071.41 94.1783  34
   1   5 -11 1141.50 106.831  30
   1   5 -11 1278.43 107.445  18
   1   5 -10 660.003 95.6748  18
   1   5 -10 599.944 88.6136  36
   1   5 -10 606.867 84.9271   9
   1   5  -9 3591.62 210.355  36
   1   5  -9 3262.68 183.659  20
   1   5  -9 3491.87 212.096  18
   1   5  -9 3258.19 191.595   9
   1   5  -8 193.763 70.6461  18
   1   5  -8 373.152 76.0199  20
   1   5  -8 212.743 69.2580  36
   1   5  -7 1465.24 132.960  20
   1   5  -6 8460.03 327.772   3
   1   5  -5 2780.27 181.400   3
  -1  -5   4 134354. 1084.69   7
   1   5  -3 255.487 61.1581   5
  -1  -5   3 549.436 77.6706   7
   1   5  -2 3516.61 179.358   5
  -1  -5   2 3288.16 180.742   7
   1   5  -1 243.395 49.2246   5
   1   5  -1 316.221 54.2862   4
  -1  -5   0 200.321 59.3068   7
   1   5   0 254.378 53.2948   4
   1   5   1 5852.06 268.396   4
  -1  -5  -1 5893.14 290.262   7
   1   5   2 416.678 82.2884   4
   1   5   2 372.415 79.6256  11
   1   5   2 366.286 78.2726  28
   1   5   3 156.218 54.7432  28
   1   5   3 87.4757 50.4967  11
   1   5   4 1299.98 129.617  11
   1   5   4 1360.99 127.909  28
   1   5   5 704.612 91.8357  28
   1   5   5 843.782 101.241  11
   1   5   6 1703.72 100.624  28
   1   5   6 2068.07 127.761  11
   1   5   7 3974.62 119.767  11
   1   6 -12 356.739 44.6131  30
   1   6 -11 2.79139 37.8688  18
   1   6 -11 7.42255 33.6028  34
   1   6 -11 58.0728 44.8432  30
   1   6 -10 1365.49 125.462  36
   1   6 -10 1366.58 117.250  34
   1   6 -10 1608.20 142.217  30
   1   6 -10 1281.08 120.098  18
   1   6 -10 1366.91 109.247  20
   1   6  -9 2506.02 173.763  18
   1   6  -9 2387.52 177.670  36
   1   6  -9 2696.22 170.931  34
   1   6  -9 2449.34 168.957  20
   1   6  -8 2464.41 176.497  20
   1   6  -8 2294.24 176.690  36
   1   6  -8 2493.91 163.909  31
   1   6  -8 2534.12 168.393  34
   1   6  -8 2260.92 166.363  18
   1   6  -7 1757.94 136.941  22
   1   6  -7 1706.77 145.329  20
   1   6  -7 1626.96 138.959  31
   1   6  -7 1748.79 147.244  36
   1   6  -7 1442.15 153.755   5
   1   6  -6 4539.52 225.963  20
   1   6  -6 4579.80 225.814  31
   1   6  -6 4071.38 243.304   5
   1   6  -6 4258.91 204.154  21
   1   6  -5 60144.8 897.265   5
   1   6  -4 1558.74 148.761   5
  -1  -6   4 1369.66 127.049   7
  -1  -6   3-105.625 53.2494   7
   1   6  -3 168.195 55.4242   5
  -1  -6   2 2104.91 168.084   7
   1   6  -2 2233.01 160.033   5
  -1  -6   1 4019.92 238.483   7
  -1  -6   0-275.049 77.8635   7
   1   6   0-0.65319 45.2742  12
   1   6   1 394.906 76.3397  12
  -1  -6  -1 243.001 79.2230   7
   1   6   1 301.483 70.3633   4
   1   6   1 339.415 70.9305  23
   1   6   2 3637.37 197.930  12
   1   6   2 4041.12 212.985  11
   1   6   3 7717.01 289.774  11
   1   6   3 8210.15 274.471  12
   1   6   4 49.6411 40.3325  11
   1   6   5 1069.15 91.1272  11
   1   6   6 448.462 44.9450  11
   1   7 -11 290.407 60.4006  30
   1   7 -10 9573.44 279.029  20
   1   7 -10 9040.06 296.917  36
   1   7 -10 9245.58 268.335  18
   1   7 -10 9977.14 311.253  30
   1   7  -9 6013.39 258.084  20
   1   7  -9 5970.25 244.629  18
   1   7  -9 5865.67 264.411  36
   1   7  -9 5657.11 226.519  31
   1   7  -8 2885.03 192.233  20
   1   7  -8 3352.23 180.890  22
   1   7  -8 2868.85 169.410  24
   1   7  -8 3000.65 198.776  36
   1   7  -8 3113.49 189.371  31
   1   7  -7-5.23832 48.1728  36
   1   7  -7-2.01925 51.3328  31
   1   7  -7 51.1167 51.9496  22
   1   7  -7 39.5385 50.1190  20
   1   7  -6 636.654 94.7761  22
   1   7  -6 872.325 111.039  21
   1   7  -6 611.008 93.9726  23
   1   7  -6 784.008 101.000  36
   1   7  -6 561.594 96.3955  31
   1   7  -6 721.812 105.504  20
   1   7  -5 58.4696 40.0821  23
   1   7  -5-90.6447 50.7382   5
   1   7  -5 27.7382 54.2563  21
   1   7  -5-8.45083 40.4653  31
   1   7  -5 38.8491 32.5925  36
   1   7  -5 100.209 52.4777  20
   1   7  -5 56.8772 44.7454  22
   1   7  -4 8441.04 352.214   5
   1   7  -4 8159.44 291.447  20
   1   7  -4 8325.23 309.839  31
   1   7  -4 7838.84 276.249  19
   1   7  -4 8217.52 282.118  21
   1   7  -4 8317.82 306.214  23
   1   7  -4 7764.81 277.106  12
   1   7  -3 21252.9 487.447  23
   1   7  -3 21429.3 485.008  31
   1   7  -3 21267.1 544.642   5
  -1  -7   3 20627.0 545.747   7
   1   7  -3 21087.9 460.975  12
   1   7  -3 20398.3 436.466  21
   1   7  -3 21738.2 462.707  19
   1   7  -2 24889.6 503.293  31
   1   7  -2 24972.5 528.234  23
  -1  -7   2 24939.3 623.586   7
   1   7  -2 25168.6 501.320  19
   1   7  -2 24825.4 510.727  12
   1   7  -1 5526.03 250.070  23
   1   7  -1 6125.26 261.516  12
  -1  -7   1 6041.13 323.561   7
   1   7   0 1154.62 119.604  23
   1   7   0 1193.32 123.889  12
   1   7   1 551.429 83.4915  23
   1   7   1 475.945 85.1213  12
   1   7   2 3575.53 187.127  12
   1   7   2 3392.58 178.146  11
   1   7   3 3635.00 161.609  12
   1   7   3 3761.60 173.730  11
   1   7   4 1594.88 97.5005  11
  -1  -7  -5 85.4934 25.7711  25
   1   8 -11 3568.08 130.012  30
   1   8 -11 3036.56 103.184  20
   1   8 -10 9270.89 258.954  20
   1   8 -10 9519.70 259.640  30
   1   8 -10 9869.65 278.896  36
   1   8  -9 6599.47 238.320  31
   1   8  -9 6895.13 245.106  30
   1   8  -9 6954.17 263.940  36
   1   8  -9 6857.05 261.317  20
   1   8  -8 394.270 84.8684  20
   1   8  -8 357.686 77.6554  31
   1   8  -8 368.174 74.9689  24
   1   8  -8 355.799 67.7005  22
   1   8  -8 464.006 75.8375  30
   1   8  -8 232.895 70.7608  36
   1   8  -7 40.5723 54.2049  20
   1   8  -7 99.6232 54.9600  36
   1   8  -7 73.8069 56.2560  31
   1   8  -7 139.796 56.8704  22
   1   8  -6 30.7968 50.6329  20
   1   8  -6 29.1202 45.2332  22
   1   8  -6 137.552 76.4518  21
   1   8  -6 132.635 58.3585  36
   1   8  -6-6.87967 53.8562  23
   1   8  -6-55.5762 58.3154  31
   1   8  -5 855.314 109.772  21
   1   8  -5 869.913 106.757  20
   1   8  -5 919.198 115.172  23
   1   8  -5 849.591 107.839  22
   1   8  -5 630.650 103.430  31
   1   8  -4 93.7403 63.2947  23
   1   8  -4 127.114 58.9512  22
   1   8  -4 110.931 64.0745  21
   1   8  -4 78.3747 42.8294  20
   1   8  -4 137.750 59.5618  31
   1   8  -4 84.5437 58.7230  12
   1   8  -3-11.1869 45.7014  31
   1   8  -3-60.3222 69.6567  12
   1   8  -3-28.0190 57.1533  21
   1   8  -3 54.4108 59.5303  23
   1   8  -2 35412.3 643.065  23
   1   8  -2 36563.6 585.634  21
   1   8  -2 35054.7 627.345  12
   1   8  -1 4603.63 227.841  23
   1   8  -1 4805.51 207.365  21
   1   8  -1 4835.03 234.228  12
   1   8   0 4845.41 216.086  23
   1   8   0 4879.47 227.952  12
   1   8   1-9.65649 44.7905  12
   1   8   2 118.602 42.5634  12
   1   8   3 58.8010 24.6698  12
   1   9 -10 3.17282 30.9574  20
   1   9  -9 251.796 60.4443  20
   1   9  -9 235.647 56.5764  36
   1   9  -9 316.390 52.0552  24
   1   9  -8-7.92034 39.9955  22
   1   9  -8 15.5057 41.1849  36
   1   9  -8 2.05163 46.7153  20
   1   9  -8 15.3353 40.1472  24
   1   9  -8-2.27633 45.6297  31
   1   9  -7 3813.20 199.661  20
   1   9  -7 3259.73 166.089  36
   1   9  -7 3673.10 204.263  31
   1   9  -7 3748.09 184.707  22
   1   9  -6 143.146 61.2586  22
   1   9  -6 149.842 59.9632  20
   1   9  -6 129.786 61.1381  31
   1   9  -6 102.250 58.1659  23
   1   9  -5 510.079 88.1757  23
   1   9  -5 497.230 90.9645  21
   1   9  -5 533.608 81.8223  20
   1   9  -5 418.827 82.0922  31
   1   9  -5 460.821 85.5391  22
   1   9  -4 7958.36 278.476  21
   1   9  -4 7756.07 294.117  31
   1   9  -4 8208.51 308.893  23
   1   9  -4 8642.03 307.573  22
   1   9  -3 46434.7 708.182  23
   1   9  -3 46741.2 639.920  21
   1   9  -3 46462.2 682.606  12
   1   9  -3 46719.1 658.522  31
   1   9  -3 46215.3 709.249  22
   1   9  -2 1363.14 112.336  21
   1   9  -2 1541.18 135.087  12
   1   9  -2 1570.83 134.368  23
   1   9  -1 1452.54 126.911  12
   1   9  -1 1455.71 117.849  23
   1   9   0 153.627 53.8060  12
   1   9   1 142.083 39.8036  12
  -1  -9  -2-16.7007 21.8410  25
   1  10  -9 103.140 36.2532  20
   1  10  -8 663.809 73.1003  20
   1  10  -8 773.791 71.6374  24
   1  10  -7 848.042 82.3794  20
   1  10  -7 975.266 93.0649  24
   1  10  -7 929.771 95.8469  31
   1  10  -7 893.983 83.5709  22
   1  10  -6 2291.48 126.267  20
   1  10  -6 2250.26 147.597  31
   1  10  -6 2123.22 132.017  22
   1  10  -5 3828.10 181.004  22
   1  10  -5 3992.08 193.904  23
   1  10  -5 3916.17 186.693  31
   1  10  -4 362.856 70.0659  21
   1  10  -4 304.515 65.6770  22
   1  10  -4 375.784 63.3428  31
   1  10  -4 349.060 73.3182  23
   1  10  -3 566.640 80.8620  23
   1  10  -3 537.555 78.0893  22
   1  10  -3 655.516 72.4803  21
   1  10  -2 1196.08 79.2174  21
   1  10  -2 1136.83 99.3437  22
   1  10  -2 1190.93 92.3715  23
   1  10  -1-9.21208 34.3433  22
   1  10   0 1044.05 70.2641  22
   1  11  -7 17.4114 25.2599  24
   1  11  -6 266.380 42.1136  22
   1  11  -6 711.600 70.4480  24
   1  11  -5 4.73109 28.7148  24
   1  11  -5 15.3898 27.0826  22
   1  11  -4 57.4342 29.3595  22
   1  11  -3-12.2367 23.4121  22
   1  11  -3-2.42752 20.5195  24
  -2  12  -2 522.832 46.9355  21
  -2  12  -3 18.2687 20.0560  22
  -2  12  -3 78.7778 34.3323  21
  -2  12  -4 425.577 45.3854  22
  -2  12  -4 419.308 40.7309  24
  -2  11   1 718.645 57.9705  12
  -2  11   1 647.242 49.9333  21
  -2  11   0 15.2352 23.6422  22
  -2  11   0-12.2941 36.3746  21
  -2  11   0 44.7972 34.9196  12
  -2  11  -1 237.976 49.7436  22
  -2  11  -1 174.238 48.5837  21
  -2  11  -1 251.319 51.8434  12
  -2  11  -2 126.583 48.9176  21
  -2  11  -2 133.590 42.7078  22
  -2  11  -2 181.980 42.6709  24
  -2  11  -3 183.616 55.2054  21
  -2  11  -3 174.004 44.3896  24
  -2  11  -3 179.357 51.3634  19
  -2  11  -3 154.232 53.4926  22
  -2  11  -4 184.026 50.5521  24
  -2  11  -4 199.384 59.0686  21
  -2  11  -4 201.963 55.4338  22
  -2  11  -5 847.708 85.1562  22
  -2  11  -5 828.879 85.4918  24
  -2  11  -5 704.513 69.0473  20
  -2  11  -6 63.1585 36.5771  20
  -2  11  -6 130.702 46.0829  24
  -2  11  -7 111.012 36.0314  20
  -2  11  -8 190.581 34.2215  20
  -2  10   3 2457.34 102.550  12
  -2  10   2 447.672 64.7937  12
  -2  10   1 406.346 56.9992  22
  -2  10   1 444.782 69.7741  12
  -2  10   0 2354.95 142.520  22
  -2  10   0 2197.71 137.787  19
  -2  10   0 2470.42 150.415  12
  -2  10  -1 83.0809 53.6497  19
  -2  10  -1 117.135 52.2552  22
  -2  10  -1 143.670 51.1411  12
  -2  10  -1 174.852 50.5601  24
  -2  10  -2 82.5759 54.5048  19
  -2  10  -2 18.0594 60.3503  21
  -2  10  -2 40.6808 49.7898  22
  -2  10  -2 53.4828 41.3521  12
  -2  10  -3 1998.61 148.705  21
  -2  10  -3 2029.95 148.977  22
  -2  10  -3 2231.31 152.641  19
  -2  10  -3 2156.90 149.479  24
  -2  10  -4 1249.19 120.992  22
  -2  10  -4 1159.87 110.758  19
  -2  10  -4 1361.80 122.237  21
  -2  10  -4 1241.72 121.770  24
  -2  10  -4 1128.91 109.689  14
  -2  10  -4 1190.20 107.188  20
  -2  10  -5 100.193 47.1451  19
  -2  10  -5 174.872 66.9778  21
  -2  10  -5 112.316 49.9338  20
  -2  10  -5 144.076 48.1644  14
  -2  10  -5 129.642 61.9338  22
  -2  10  -5 129.313 60.6548  24
  -2  10  -6 1246.32 114.804  20
  -2  10  -6 1007.00 105.344  22
  -2  10  -6 1077.69 91.8666  14
  -2  10  -6 1080.91 112.482  24
  -2  10  -7-30.3263 47.1243  24
  -2  10  -7-11.2791 41.0933  20
  -2  10  -8 150.874 45.7712  20
  -2  10  -9 332.862 39.7990  20
  -2  10  -9 279.865 39.0594  27
  -2   9   4 228.938 47.6013  12
  -2   9   3 26.9230 93.8465  35
  -2   9   3 798.871 91.0010  12
  -2   9   2 37.8121 118.496  35
  -2   9   2 132.865 61.3344  12
  -2   9   1 8199.81 298.065  12
  -2   9   1 8568.04 277.377  19
  -2   9   1 8566.36 295.802  37
  -2   9   0 1051.92 113.123  22
  -2   9   0 907.700 107.779  19
  -2   9   0 990.098 112.114  37
  -2   9   0 961.455 165.469  35
  -2   9   0 869.720 108.909  12
  -2   9  -1 2231.34 163.029  22
  -2   9  -1 2314.68 165.869  19
  -2   9  -1 2132.41 162.870  37
  -2   9  -1 2270.13 158.371  12
  -2   9  -2 2297.88 166.160  19
  -2   9  -2 2619.07 173.561  37
  -2   9  -2 2300.75 166.968  14
  -2   9  -2 2539.09 172.988  22
  -2   9  -2 2548.04 161.388  12
  -2   9  -3 275.807 71.6090  21
  -2   9  -3 248.474 65.2540  37
  -2   9  -3 370.882 76.5933  20
  -2   9  -3 268.993 68.3601  14
  -2   9  -3 298.167 74.5806  22
  -2   9  -3 266.958 71.2450  19
  -2   9  -4 47.1929 45.2489  20
  -2   9  -4 131.491 56.2739  19
  -2   9  -4 92.8462 54.3753  14
  -2   9  -4 78.3586 58.1297  21
  -2   9  -4 77.4256 60.2745  24
  -2   9  -4 60.1113 58.6801  22
  -2   9  -5 2888.09 184.792  22
  -2   9  -5 2791.53 170.904  21
  -2   9  -5 2781.25 183.648  20
  -2   9  -5 2475.37 161.415  14
  -2   9  -5 2797.33 161.377  19
  -2   9  -5 2773.48 184.443  24
  -2   9  -6 996.475 116.775  20
  -2   9  -6 913.009 109.267  22
  -2   9  -6 916.681 98.9183  14
  -2   9  -6 921.341 110.710  24
  -2   9  -7 301.811 73.5206  20
  -2   9  -7 451.284 67.6369  14
  -2   9  -7 350.730 74.7331  24
  -2   9  -8 18.6575 42.9775  20
  -2   9  -9 48.6185 32.0241  20
  -2   8   5 327.383 50.1872  11
  -2   8   5 465.398 65.8981  12
  -2   8   4 120.640 41.9191  11
  -2   8   4 33.7041 94.8487  35
  -2   8   3 675.368 84.1157  37
  -2   8   2 3358.86 189.145  37
  -2   8   2 3476.15 177.274  19
  -2   8   1 157.704 61.4405  19
  -2   8   1 171.287 66.2918  37
  -2   8   1-35.3958 191.160  35
  -2   8   0 69585.7 849.059  19
  -2   8   0 68406.9 869.763  37
  -2   8  -1 6.38506 54.8255  23
  -2   8  -1 41.5615 56.9770  12
  -2   8  -1 18.2770 43.1183  19
  -2   8  -1-64.1504 165.438  35
  -2   8  -1 14.1741 42.4912  37
  -2   8  -1 173.193 55.6891  14
  -2   8  -1 67.8928 48.6551  22
  -2   8  -2 514.723 84.1350  23
  -2   8  -2 614.774 89.6026  22
  -2   8  -2 517.958 85.3609  31
  -2   8  -2 646.518 86.8548  37
  -2   8  -2 545.366 96.3640   8
  -2   8  -2 500.481 72.6840  12
  -2   8  -2 573.750 88.6067  19
  -2   8  -2 539.625 83.3196  14
  -2   8  -3 95.3608 53.3952  22
  -2   8  -3 76.0535 50.0108  31
  -2   8  -3 140.167 48.8371  20
  -2   8  -3 263.971 74.5469   8
  -2   8  -3 86.5768 43.8533  37
  -2   8  -3 65.8166 50.6556  14
  -2   8  -3 154.972 56.9255  19
  -2   8  -4 384.534 75.2526  21
  -2   8  -4 533.412 83.9178  14
  -2   8  -4 489.219 82.8279  22
  -2   8  -4 545.099 87.4977  20
  -2   8  -4 472.440 74.1640  19
  -2   8  -4 762.580 114.927   8
  -2   8  -4 512.164 91.8049  31
  -2   8  -5 324.405 81.2810  34
  -2   8  -5 289.272 57.5896  19
  -2   8  -5 183.603 64.2017  22
  -2   8  -5 349.482 73.5948  21
  -2   8  -5 299.012 77.0393  20
  -2   8  -5 180.434 65.0089  24
  -2   8  -6 6095.90 274.996  20
  -2   8  -6 5625.89 282.258  18
  -2   8  -6 6249.42 267.411  22
  -2   8  -6 5857.31 251.323  30
  -2   8  -6 5741.80 278.368  34
  -2   8  -6 5899.11 263.955  24
  -2   8  -7 13201.1 417.695  18
  -2   8  -7 13364.2 392.006  20
  -2   8  -7 12656.7 371.490  30
  -2   8  -7 12591.8 398.182  34
  -2   8  -7 13775.8 383.672  24
  -2   8  -8 1632.34 146.607  18
  -2   8  -8 1659.66 143.760  34
  -2   8  -8 1578.54 133.715  30
  -2   8  -8 1686.15 133.039  20
  -2   8  -9 169.780 41.6629  20
  -2   8  -9 131.906 54.6530  34
  -2   8  -9 101.770 55.7541  18
  -2   8 -10 328.886 45.3335  27
  -2   7   7 518.922 50.1873  11
  -2   7   6 6467.30 218.470  11
  -2   7   5 4932.36 220.759  11
  -2   7   4 477.417 85.1677  11
  -2   7   3 720.662 93.9499  11
  -2   7   3 838.874 96.1430  37
  -2   7   2 1373.82 125.580  37
  -2   7   2 1387.52 117.232  19
  -2   7   1 11879.9 343.552  37
  -2   7   1 11333.9 323.529  19
  -2   7   0 16370.6 463.958   8
  -2   7  -1 32406.9 655.886   8
  -2   7  -2 1176.63 128.527   8
  -2   7  -3 3739.99 229.463   8
  -2   7  -4 6852.95 264.100  22
  -2   7  -4 7032.01 278.365  31
  -2   7  -4 6910.41 294.049  18
  -2   7  -4 7044.73 285.946  34
  -2   7  -4 6583.89 301.296   8
  -2   7  -4 7088.32 276.486  20
  -2   7  -5-1.38892 50.2373  22
  -2   7  -5-26.0240 53.5824  18
  -2   7  -5 23.6277 53.1831  21
  -2   7  -5 47.5925 50.6714  30
  -2   7  -5 45.2179 46.1227  20
  -2   7  -5 4.31707 49.8728  34
  -2   7  -5 27.9272 42.5197  36
  -2   7  -5-48.2849 27.5084   8
  -2   7  -5-22.6280 62.9707  24
  -2   7  -6 15503.6 414.323  22
  -2   7  -6 15389.3 429.154  20
  -2   7  -6 14707.0 409.403  24
  -2   7  -6 14726.9 451.712  18
  -2   7  -6 14783.0 417.303  30
  -2   7  -6 15331.7 428.884  36
  -2   7  -6 14913.6 442.495  34
  -2   7  -7 30231.7 649.978  18
  -2   7  -7 31240.8 599.457  20
  -2   7  -7 30989.5 637.211  34
  -2   7  -7 31046.5 616.975  30
  -2   7  -7 30135.1 571.882  24
  -2   7  -8 1173.07 115.521  20
  -2   7  -8 1038.12 129.366  18
  -2   7  -8 1105.80 126.479  30
  -2   7  -8 1108.85 130.006  34
  -2   7  -9 142.886 64.5447  34
  -2   7  -9 110.700 39.3372  20
  -2   7  -9 193.407 60.5983  30
  -2   7  -9 137.860 62.3232  18
  -2   7 -10 103.724 43.3597  34
  -2   7 -10 37.5100 37.0562  18
  -2   7 -10 116.707 34.4946  27
  -2   6   8-29.3573 28.1891  11
  -2   6   7-15.2605 41.6816  11
  -2   6   6 1640.24 139.855  11
  -2   6   5 7704.89 304.020  11
  -2   6   4 36.7583 47.4766  11
  -2   6   4 133.083 50.3598  32
  -2   6   3 3770.41 200.799  11
  -2   6   3 3865.70 187.711  37
  -2   6   3 3787.80 235.174   4
  -2   6   2 6756.07 266.009   8
  -2   6   2 6818.19 287.807   4
  -2   6   1 7855.69 278.409   4
  -2   6   1 7457.83 282.343   8
  -2   6   0 12541.6 309.501   4
  -2   6   0 12592.4 370.252   8
  -2   6  -1 30116.8 571.974   8
  -2   6  -2 14719.5 405.654   8
  -2   6  -3 265.640 61.2353   8
  -2   6  -4 17606.4 450.742   8
  -2   6  -5 10851.5 350.564   8
  -2   6  -6 52924.8 746.370  24
  -2   6  -6 52794.3 763.194  20
  -2   6  -6 52685.7 787.570  30
  -2   6  -6 54714.9 790.404  36
  -2   6  -6 53328.1 814.440  34
  -2   6  -6 54423.3 840.242  18
  -2   6  -7 11492.7 355.541  20
  -2   6  -7 11416.5 382.123  30
  -2   6  -7 11281.9 396.696  18
  -2   6  -8 54.3156 63.2807  18
  -2   6  -8 49.5606 48.9769  20
  -2   6  -8 127.381 76.2526  34
  -2   6  -8 106.424 67.5696  30
  -2   6  -9 797.028 104.062  34
  -2   6  -9 816.340 101.403  30
  -2   6  -9 640.003 96.6109  18
  -2   6 -10 10.0957 37.4430  18
  -2   6 -10-32.7190 25.2901  27
  -2   5   9 233.057 35.1048  11
  -2   5   8 453.716 69.6533  11
  -2   5   7 440.863 86.5037  32
  -2   5   7 493.897 90.2826  11
  -2   5   6 8895.83 342.289  32
  -2   5   6 8700.30 329.893  11
  -2   5   5 1528.53 146.276  32
  -2   5   5 1758.88 151.124  11
  -2   5   4 9960.99 328.045  11
  -2   5   4 9705.87 382.650   4
  -2   5   3 12710.1 396.883   4
  -2   5   2 12518.7 351.518   4
  -2   5   2 12515.3 318.324   8
  -2   5   1 53930.1 670.342   8
  -2   5   1 55379.8 655.387   4
  -2   5   0 21547.7 360.814   4
  -2   5   0 21949.7 428.555   8
  -2   5  -1 93124.8 651.258   4
  -2   5  -1 93790.4 892.444   8
   2  -5   1 93303.2 684.458   2
  -2   5  -2 4734.07 206.331   8
  -2   5  -3 3440.76 178.054   8
  -2   5  -4 5781.13 231.642   8
  -2   5  -5 339.382 77.0358   1
  -2   5  -6 19671.3 444.928  20
  -2   5  -6 20457.4 469.443  36
  -2   5  -6 20387.5 582.616   1
  -2   5  -6 20517.7 505.303  18
  -2   5  -6 19563.0 474.333   9
  -2   5  -6 20135.1 480.181  30
  -2   5  -6 20532.3 448.899  24
  -2   5  -7 9184.57 301.731  20
  -2   5  -7 8447.03 341.619  18
  -2   5  -7 8535.55 330.573   9
  -2   5  -7 9385.35 344.724  30
  -2   5  -8 2569.92 193.639  18
  -2   5  -8 2637.08 189.425   9
  -2   5  -8 2523.11 181.144  30
  -2   5  -9 416.972 86.7915  18
  -2   5  -9 394.215 77.4083  30
   2  -5  10 319.579 47.1343  28
  -2   5 -10 266.572 57.3363  18
  -2   5 -10 289.892 58.4230  34
  -2   4   9 44.3861 37.2802  11
  -2   4   8 112.250 59.2544  11
  -2   4   8 66.9536 62.5880  32
  -2   4   7-7.52490 56.0597  32
  -2   4   7 45.0821 57.2708  11
  -2   4   6 288.038 74.4754  11
  -2   4   6 232.979 72.5969  32
  -2   4   5 837.667 104.112  11
  -2   4   5 814.885 122.816   4
  -2   4   4 37339.0 682.167   4
  -2   4   3 3313.51 142.766   8
  -2   4   3 3074.93 178.054   4
  -2   4   2 27922.2 468.169   4
  -2   4   2 27437.3 418.282   8
  -2   4   1 2.61065 28.8209   4
  -2   4   1 105.425 40.4383   8
  -2   4   0 19543.3 305.470   4
  -2   4   0 19657.5 356.965   8
   2  -4   1 46487.4 454.970   2
  -2   4  -1 47324.9 564.274   8
  -2   4  -2 122619. 927.754   8
   2  -4   2 123257. 723.056   2
   2  -4   3 1096.68 74.5354   2
  -2   4  -3 1137.26 105.600   1
  -2   4  -3 1113.53 92.0510   8
  -2   4  -4 18848.8 449.862   1
  -2   4  -4 18532.8 370.228   8
  -2   4  -5 12705.7 409.906   1
  -2   4  -6 116.312 64.3089  18
  -2   4  -6 131.970 56.1906   9
  -2   4  -6 310.624 79.7608   1
  -2   4  -6 104.536 57.8655  30
  -2   4  -6 117.995 50.3058  36
  -2   4  -7 1376.55 145.755  18
  -2   4  -7 1320.65 140.117   9
  -2   4  -7 1391.46 137.510  30
  -2   4  -8 4449.01 232.510  30
  -2   4  -8 4383.46 242.636   9
  -2   4  -8 4362.29 245.315  18
  -2   4  -9 6164.34 261.761  18
  -2   4 -10 290.445 56.6494  18
   2  -4  10 208.109 44.3604  28
  -2   3  10-0.68918 24.3464  11
  -2   3   9 371.700 71.5891  11
  -2   3   9 304.020 74.5346  32
  -2   3   8-23.2215 62.8869  11
  -2   3   8 47.9476 65.2973  32
   2  -3  -8-16.1774 37.0862   9
  -2   3   7 1454.55 142.572  11
   2  -3  -7 1636.37 138.982   9
  -2   3   7 1583.80 152.038  32
  -2   3   6 1177.88 140.703   4
  -2   3   6 1348.28 131.156  11
  -2   3   6 1028.37 116.717  32
  -2   3   5 985.822 122.043   4
  -2   3   4 92906.5 967.697   4
  -2   3   3 53912.0 656.615   4
  -2   3   3 55537.0 494.109   8
  -2   3   2 166.068 42.5157   4
  -2   3   2 220.973 39.0354   8
  -2   3   1 10809.9 229.687   4
  -2   3   0 1631.81 82.3686   4
   2  -3   1 5940.73 159.317   2
  -2   3  -2 9414.23 238.828   1
   2  -3   2 9376.92 208.125   2
  -2   3  -3 50294.4 619.654   1
   2  -3   3 49954.8 527.171   2
  -2   3  -4 32.3462 45.1416   1
   2  -3   4-11.5749 23.2876   2
  -2   3  -5 5047.96 253.372   1
  -2   3  -6 191.619 50.8332   1
  -2   3  -6 94.5232 51.2763  18
  -2   3  -6 61.3116 44.5040  30
  -2   3  -6 7.75731 39.7353   9
  -2   3  -7 2632.12 189.425  18
  -2   3  -7 2789.42 200.395   9
  -2   3  -7 2812.24 182.878  30
  -2   3  -8 21378.0 528.202   9
  -2   3  -8 22104.0 527.398  18
  -2   3  -8 20958.8 467.195  30
  -2   3  -9 38.6824 45.7918  18
   2  -3  10 584.032 63.6265  28
   2  -3  10 649.837 70.5084  16
  -2   3 -10 616.405 66.8573  18
   2  -2 -11 39.4420 21.1891  18
  -2   2  10 62.9855 34.8590  28
  -2   2  10 87.0281 37.6788  11
   2  -2 -10 100.133 37.3735   9
  -2   2  10 76.4129 47.4351  32
  -2   2   9 182.691 61.3626  11
   2  -2  -9 193.340 58.9949   9
  -2   2   9 279.282 79.4766  32
  -2   2   8 446.893 90.4595  11
  -2   2   8 221.579 80.1637  32
   2  -2  -8 436.482 83.1595   9
  -2   2   7 29538.8 581.657  11
  -2   2   7 30927.8 615.654  32
  -2   2   7 29379.1 676.013   4
   2  -2  -7 29860.6 577.859   9
  -2   2   6 1491.95 143.873   4
  -2   2   5 5952.45 250.656   4
  -2   2   4 81702.6 814.631   4
  -2   2   3 1442.23 99.3325   4
  -2   2   2 18806.7 301.503   4
  -2   2   1 228441. 935.885   4
   2  -2   0 8344.74 180.467   2
  -2   2  -1 277070. 1027.60   1
   2  -2   1 279341. 1070.60   2
   2  -2   2 109714. 743.854   2
  -2   2  -2 111561. 761.617   1
  -2   2  -3 56206.8 633.833   1
   2  -2   3 54892.3 596.720   2
   2  -2   4 133860. 1063.83   2
   2  -2   4 135951. 949.260   4
  -2   2  -4 132446. 1130.23   1
   2  -2   5 4030.60 187.844   4
  -2   2  -5 4125.41 231.889   1
  -2   2  -6 5211.62 288.069   1
  -2   2  -6 5225.12 253.335   9
  -2   2  -6 5060.34 226.268  30
  -2   2  -7 768.693 109.694   9
  -2   2  -7 691.881 92.8911  30
  -2   2  -8 632.306 100.525   9
  -2   2  -8 507.160 91.3935  18
  -2   2  -9 49.1865 44.1215  18
   2  -2   9-17.3709 41.9159  28
  -2   2 -10 55.0491 28.9917  18
   2  -2  10-14.8017 26.6200  16
   2  -2  10-6.32524 25.1331  28
   2  -1 -11 106.566 35.6143   9
  -2   1  11 147.293 33.4312  28
  -2   1  10 849.214 85.4114  11
   2  -1 -10 873.092 98.5011   9
  -2   1  10 926.810 103.617  32
  -2   1   9 19414.9 448.831  11
   2  -1  -9 20379.9 491.513   9
  -2   1   9 19392.1 492.200  32
  -2   1   8 26.9973 52.9530  11
   2  -1  -8 0.15803 50.6682   9
  -2   1   7 145.288 56.8211   4
  -2   1   6 147.479 50.6297   4
  -2   1   5 46607.1 623.834   4
  -2   1   4 63295.4 638.227   4
  -2   1   3 5945.37 178.532   6
  -2   1   3 5963.83 172.865   4
  -2   1   2 351769. 1175.18   4
  -2   1   1 75649.2 465.941   6
  -2   1   1 77205.0 510.403   4
  -2   1   0 283206. 713.744   1
   2  -1   0 280648. 1033.46   2
  -2   1  -1 27127.6 301.765   1
   2  -1   1 26297.0 344.925   2
  -2   1  -1 26926.0 226.678   7
   2  -1   2 12984.5 276.468   2
  -2   1  -2 13568.9 171.886   7
   2  -1   3 280068. 1461.01   2
   2  -1   4 3474.38 174.623   4
  -2   1  -5 904.151 118.496   1
   2  -1   5 714.205 93.5543   4
  -2   1  -6 1952.18 159.791   9
  -2   1  -6 1835.47 179.088   1
  -2   1  -7 2402.08 182.801   9
  -2   1  -8 1330.52 130.433   9
  -2   1  -8 1532.93 133.384  18
   2  -1   9 119.196 47.0683  16
  -2   1  -9 119.817 43.1249  18
   2  -1   9 120.142 51.5801  28
   2   0 -11 30.2128 40.6191   9
  -2   0  11 38.5106 38.0800  32
   2   0 -10 4979.15 239.480   9
  -2   0  10 5032.19 229.726  32
   2   0  -9 609.006 105.652   9
  -2   0   9 369.171 90.2014  32
  -2   0   8 1280.48 131.669  32
   2   0  -8 1364.41 136.256   9
   2   0  -8 1421.67 153.605   1
  -2   0   7 1953.72 149.327   4
  -2   0   6 612.279 78.2011   4
  -2   0   5 6408.12 208.036   4
  -2   0   4 25137.5 391.292   6
  -2   0   4 25032.9 357.528   4
  -2   0   3 126907. 761.947   6
  -2   0   3 126542. 709.825   4
  -2   0   1 570375. 1410.85   7
   2   0  -1 571847. 1400.01   2
   2   0   0 63087.1 505.649   2
  -2   0   0 62171.7 440.655   7
  -2   0  -1 123370. 652.040   7
   2   0   1 122478. 802.402   2
   2   0   2 22427.1 393.886   2
  -2   0  -2 21152.5 301.786   7
  -2   0  -3 3911.26 145.347   7
   2   0   3 3557.57 183.492   2
   2   0   4 47753.7 702.547   4
   2   0   5 24376.8 565.451   4
   2   0   6 4705.40 226.640  11
  -2   0  -6 4208.10 229.743   9
   2   0   7 593.293 101.722  28
  -2   0  -7 638.060 97.8932   9
   2   0   7 673.608 100.554  16
   2   0   7 633.445 85.6470  11
   2   0   8 169.695 44.3137  11
  -2   0  -8 253.046 58.1516  18
   2   0   8 236.492 70.1912  28
   2   0   8 265.849 61.9445  16
   2   0   9 32.1720 39.1115  28
  -2   0  -9-20.5939 22.9894  18
   2   0   9 20.5465 25.7614  16
   2   1 -12 26.4211 25.2393  18
   2   1 -12 24.9712 28.7100   9
  -2  -1  12 27.5145 22.7655  28
  -2  -1  11 940.394 83.9731  32
   2   1 -11 828.123 97.5866   9
   2   1 -11 979.335 99.7877  18
   2   1 -10 1168.32 131.114   9
  -2  -1  10 1216.23 117.390  32
   2   1  -9 7405.85 310.186   9
  -2  -1   9 7208.46 289.757  32
   2   1  -8 14882.8 469.795   1
   2   1  -8 15070.5 424.569   9
  -2  -1   8 15170.2 407.895  32
   2   1  -7 4104.82 225.211   1
   2   1  -7 4112.43 204.530   3
   2   1  -6 9265.61 292.337   1
  -2  -1   6 9048.02 247.793   4
  -2  -1   5 8387.55 241.733   6
   2   1  -5 8898.29 245.525   1
  -2  -1   4 5135.15 173.548   6
   2   1  -4 5224.21 154.598   1
  -2  -1   4 5237.03 149.792   4
   2   1  -3 999999. 1699.71   1
   2   1  -1 444580. 1275.19   2
  -2  -1   1 445432. 1388.66   7
   2   1  -1 443989. 1158.07   3
   2   1   0 10353.7 146.340   3
  -2  -1   0 10410.7 220.767   7
   2   1   0 10870.7 227.712   2
   2   1   1 4545.51 170.605   2
  -2  -1  -1 4828.86 163.803   7
   2   1   2 360.524 66.2019   2
  -2  -1  -2 242.117 45.4993   7
   2   1   3 1147.10 112.991   4
  -2  -1  -3 1068.05 91.1817   7
   2   1   4 95.1411 58.5985   4
   2   1   5 1629.42 177.035   4
   2   1   5 1753.55 150.906  11
   2   1   6 4971.39 248.359  16
  -2  -1  -6 5082.94 239.487   9
   2   1   6 4888.26 256.732  28
   2   1   6 5627.82 256.748  11
   2   1   7 384.484 71.4430  16
   2   1   7 241.919 68.3368  28
   2   1   7 354.450 69.5381  11
  -2  -1  -8 1456.84 94.4898  18
   2   1   8 1641.17 102.534  16
   2   1   8 1744.91 125.741  28
   2   1   8 1562.35 100.523  11
   2   1   9 363.802 42.0445  28
   2   2 -12 40.1197 28.1005  18
   2   2 -12 12.3877 32.6064   9
   2   2 -11 1943.12 144.598   9
   2   2 -11 1669.25 111.914  30
   2   2 -11 1690.86 130.651  18
   2   2 -10 44.6959 55.1028   9
   2   2  -9 613.327 96.9512   9
  -2  -2   9 119.918 54.6962  32
  -2  -2   8 285.970 69.8739  32
   2   2  -8 339.786 73.2599   9
   2   2  -8 246.926 74.2747   1
   2   2  -7 88032.0 975.374   3
   2   2  -7 88290.0 1003.31   1
   2   2  -6 9558.90 291.012   1
  -2  -2   6 9285.70 276.533   6
   2   2  -6 10152.3 310.476   3
  -2  -2   5 27587.2 438.190   6
   2   2  -5 28280.9 471.809   3
   2   2  -5 28042.6 430.584   1
   2   2  -4 111589. 864.817   3
   2   2  -4 111111. 598.090   2
   2   2  -4 109699. 729.470   1
   2   2  -3 18857.0 328.222   3
   2   2  -3 18918.7 226.754   2
  -2  -2   3 18981.9 339.788   7
   2   2  -2 102026. 563.965   2
   2   2  -2 100117. 694.248   3
  -2  -2   2 101499. 776.386   7
  -2  -2   1 238.503 47.3248   7
   2   2  -1 106.455 25.1440   3
   2   2  -1 190.090 36.9531   2
   2   2   0 2856.69 128.533   2
   2   2   0 2826.43 92.8338   5
  -2  -2   0 2677.45 135.363   7
   2   2   1 45109.0 586.138   2
  -2  -2  -1 44480.1 580.890   7
   2   2   2 19634.8 439.694   4
  -2  -2  -2 19482.9 418.135   7
  -2  -2  -3 848.492 97.0292   7
   2   2   3 747.027 104.418   4
   2   2   4 989.116 118.199  11
   2   2   4 939.595 110.615  16
   2   2   4 849.900 114.863  28
   2   2   4 1053.41 136.340   4
   2   2   5 22599.4 539.714  28
   2   2   5 22127.8 518.941  11
   2   2   5 23080.2 511.177  16
  -2  -2  -6 1215.50 112.991  25
   2   2   6 1213.14 124.597  11
   2   2   6 1125.08 128.521  28
   2   2   6 1254.97 118.675  16
   2   2   7-2.59779 38.6529  11
   2   2   7 35.5935 47.5521  28
   2   2   8 108.859 33.4191  11
   2   2   8 181.670 42.9383  28
   2   3 -12-0.23337 31.7267   9
   2   3 -12-6.41669 21.6812  30
   2   3 -12-18.1815 29.7940  18
   2   3 -11 673.179 91.1999   9
   2   3 -11 626.751 81.2387  30
   2   3 -11 673.418 85.9341  18
   2   3 -10 1658.68 129.352  36
   2   3 -10 2014.55 160.684   9
   2   3 -10 1950.59 155.686  18
   2   3  -9 1781.40 152.151   9
   2   3  -9 1829.68 145.383  36
   2   3  -8 38491.0 707.617   3
   2   3  -8 38049.1 648.538   9
   2   3  -8 37892.7 731.282   1
   2   3  -7 1121.57 120.286   3
   2   3  -7 984.885 121.517   1
  -2  -3   6 23027.9 437.165   6
   2   3  -6 24180.3 499.946   3
   2   3  -6 24057.8 471.457   1
   2   3  -5 2974.85 167.491   3
   2   3  -5 2949.99 149.728   1
  -2  -3   4 9578.91 275.853   7
   2   3  -4 9963.70 281.620   3
   2   3  -3 2567.09 134.370   3
  -2  -3   3 1024.78 96.3245   7
   2   3  -2 15191.0 304.698   3
  -2  -3   2 14509.5 331.151   7
   2   3  -2 14913.7 225.308   2
  -2  -3   1 27817.7 472.689   7
   2   3  -1 28346.5 378.715   2
   2   3   0 60174.1 504.006   5
  -2  -3   0 59186.9 718.845   7
   2   3   1 7840.85 278.914   4
  -2  -3  -1 8199.63 289.343   7
  -2  -3  -2 11813.3 373.983   7
   2   3   2 11317.1 372.342   4
  -2  -3  -3 21012.8 527.060   7
   2   3   3 21754.8 498.233  28
   2   3   3 22066.1 496.688  11
   2   3   3 22880.7 588.263   4
   2   3   4 1859.72 162.283  28
   2   3   4 1803.44 154.441  11
   2   3   5 7655.45 303.851  11
   2   3   5 7710.39 312.416  28
   2   3   6 1317.54 126.389  28
  -2  -3  -6 1256.40 108.458  25
   2   3   6 1388.91 124.559  11
   2   3   7 14.2478 31.5772  11
   2   3   7 47.0354 39.0184  28
   2   4 -12 1971.25 97.5781  18
   2   4 -12 2076.58 108.447  30
   2   4 -12 2028.16 106.547   9
   2   4 -11 474.415 74.7261  18
   2   4 -11 425.046 73.3676   9
   2   4 -11 437.532 64.9758  36
   2   4 -10 709.861 96.1286  18
   2   4 -10 727.422 95.8970  36
   2   4 -10 735.950 100.286   9
   2   4  -9 3646.97 206.190   9
   2   4  -9 3358.08 200.276  18
   2   4  -8 2236.93 179.030   3
   2   4  -8 2489.17 164.019  20
   2   4  -7 10291.4 373.697   3
   2   4  -6 675.294 97.7943   3
   2   4  -5 427.482 77.6890   3
  -2  -4   4 20862.8 443.902   7
   2   4  -4 21467.5 452.988   3
   2   4  -3 3852.48 184.702   3
  -2  -4   3 4060.29 198.256   7
  -2  -4   2 35425.1 585.144   7
   2   4  -2 35179.2 454.917   4
   2   4  -1 17073.1 342.477   5
   2   4  -1 17325.7 363.375   4
  -2  -4   1 16793.0 423.129   7
   2   4   0 33052.9 567.953   4
  -2  -4   0 33861.2 624.130   7
  -2  -4  -1 848.038 112.272   7
   2   4   1 836.211 106.431   4
   2   4   2 785.235 100.657  11
  -2  -4  -2 610.193 106.006   7
   2   4   2 882.956 111.140  28
   2   4   2 745.704 114.134   4
   2   4   3 4111.78 225.167  11
   2   4   3 3996.34 224.969  28
   2   4   4 879.424 116.064  28
   2   4   4 934.785 118.669  11
   2   4   5 1130.96 120.535  11
   2   4   5 1236.20 121.309  28
   2   4   6 39.6503 38.9861  28
   2   4   6 57.3122 42.1155  11
  -2  -4  -6-11.9501 33.4833  25
   2   4   7 1538.70 72.7385  11
   2   5 -12 506.422 61.7139  30
   2   5 -11 35.8966 40.2927  36
   2   5 -11 104.242 42.4684  18
   2   5 -11 181.859 48.5130   9
   2   5 -10 53.7499 39.5752  20
   2   5 -10 66.4427 50.0831  18
   2   5 -10-10.8777 48.7639  36
   2   5  -9 436.833 81.9096  20
   2   5  -9 523.776 95.5743  36
   2   5  -8 708.109 98.5642  20
   2   5  -7 85.4790 47.0970   3
   2   5  -7 38.8717 42.9110  20
   2   5  -7 66.8917 49.6828  31
   2   5  -6 1600.83 154.790   3
   2   5  -5 182.806 70.2872   3
  -2  -5   5 243.081 66.8274   7
  -2  -5   4 538.052 88.2637   7
   2   5  -4 480.755 78.8525   3
   2   5  -3 2221.47 158.458   5
  -2  -5   3 2037.25 159.832   7
   2   5  -2 7574.03 269.990   5
  -2  -5   2 7886.62 317.538   7
   2   5  -1 2646.18 164.175   4
  -2  -5   1 2493.63 186.849   7
   2   5   0 5425.17 261.330   4
  -2  -5   0 5296.61 283.009   7
  -2  -5  -1 224.113 65.7602   7
   2   5   1 268.315 69.3645  11
   2   5   1 260.783 68.2938  28
   2   5   1 111.046 47.5325  12
   2   5   1 252.893 63.8969   4
   2   5   2 367.825 74.3813  11
   2   5   2 432.947 84.0431  28
   2   5   3 312.956 75.1361  11
   2   5   3 1749.79 171.804  28
   2   5   4 122.223 52.3008  11
   2   5   4 141.448 56.5097  28
   2   5   5 86.3659 48.0348  11
  -2  -5  -5 54.3649 45.7259  25
   2   5   5 31.2537 34.2820  28
   2   5   6 4053.38 125.908  11
   2   6 -12 11.8581 28.4051  30
   2   6 -11 482.970 70.8345  36
   2   6 -11 562.778 79.9738  30
   2   6 -10 6169.71 239.303  20
   2   6 -10 6045.56 259.348  36
   2   6  -9 270.421 76.4024  36
   2   6  -9 285.284 72.6705  20
   2   6  -8 554.451 97.9457  20
   2   6  -8 603.725 93.5922  31
   2   6  -7-21.1564 48.9675  20
   2   6  -7 7.23804 45.1897  31
   2   6  -7 40.0128 42.0048  23
   2   6  -6 3673.91 196.314  23
   2   6  -6 3462.55 180.000  22
   2   6  -6 3605.21 242.696   5
   2   6  -6 3501.07 206.537  20
   2   6  -5 21124.1 465.139  23
   2   6  -5 21542.9 440.183  21
   2   6  -5 21039.4 552.834   5
  -2  -6   5 20349.9 524.539   7
   2   6  -4 3593.40 222.474   5
  -2  -6   4 3791.99 235.445   7
   2   6  -3 4324.75 237.203   5
  -2  -6   3 4364.65 256.187   7
   2   6  -2 4184.31 206.407  12
  -2  -6   2 3976.60 251.621   7
   2   6  -1 121.173 49.0444  12
   2   6  -1 125.807 52.2570  28
   2   6   0 6191.43 272.718  28
   2   6   0 6402.54 259.006  12
   2   6   1 2830.31 187.729  28
   2   6   1 3006.69 178.753  11
   2   6   1 2997.68 175.934  12
   2   6   2 9010.57 317.857  28
   2   6   2 9076.60 276.539  12
   2   6   2 8799.69 300.277  11
   2   6   3 225.729 59.5535  11
   2   6   3 282.751 65.5309  28
   2   6   4 713.518 69.3038  28
  -2  -6  -4 890.689 88.9695  25
   2   6   4 942.823 85.7995  11
  -2  -6  -5 498.693 47.6701  25
   2   6   5 523.562 47.0075  11
   2   7 -12 25.6942 22.6164  30
   2   7 -11 269.153 46.5504  20
   2   7 -11 262.137 56.4011  36
   2   7 -11 192.873 53.3920  30
   2   7 -10 6523.06 241.380  20
   2   7 -10 6564.42 256.003  36
   2   7  -9 838.431 108.314  20
   2   7  -9 740.097 108.616  36
   2   7  -9 813.804 98.0285  31
   2   7  -8 5457.19 261.709  20
   2   7  -8 5304.33 255.782  36
   2   7  -8 5368.60 252.652  31
   2   7  -7 260.541 69.3352  23
   2   7  -7 344.019 69.3627  22
   2   7  -7 316.520 73.6530  36
   2   7  -7 297.590 78.1138  31
   2   7  -7 317.606 75.3343  20
   2   7  -6 946.688 104.927  22
   2   7  -6 750.480 104.972  20
   2   7  -6 778.311 110.405  31
   2   7  -6 842.334 106.635  23
   2   7  -5 2198.80 166.490  23
   2   7  -5 2011.13 148.504  21
   2   7  -5 1900.44 153.573  20
   2   7  -5 2272.15 173.810  31
   2   7  -5 2090.00 153.280  22
  -2  -7   4 372.211 81.9793   7
   2   7  -4 377.570 89.7421  23
   2   7  -4 381.620 78.1590  21
   2   7  -4 590.783 87.1728  20
   2   7  -4 416.283 82.5273  31
   2   7  -4 446.722 87.1478  12
   2   7  -3-1.39508 49.9267  23
   2   7  -3 19.3793 50.1672  21
   2   7  -3 59.9585 62.5522  12
   2   7  -3 11.2215 52.2623  31
   2   7  -2 3304.96 204.543  23
   2   7  -2 3631.54 203.970  12
   2   7  -2 3192.37 183.466  31
   2   7  -1 247.825 70.2622  23
   2   7  -1 382.942 71.6885  28
   2   7   0 226.213 69.8368  23
   2   7   0 326.068 72.4461  28
   2   7   0 324.290 74.0668  12
   2   7   1 9624.15 289.793  23
   2   7   1 9472.18 300.806  28
   2   7   1 9880.12 290.978  12
   2   7   2 192.955 49.4188  11
   2   7   2 186.593 46.5872  12
   2   7   3 220.241 41.6839  11
  -2  -7  -3 238.808 53.2397  25
  -2  -7  -4-3.43398 24.6679  25
   2   8 -11 3122.63 115.634  20
   2   8 -11 3158.05 115.287  30
   2   8 -10 3392.27 162.034  20
   2   8 -10 3629.46 168.925  36
   2   8 -10 3355.51 146.314  30
   2   8  -9 5.56949 44.9842  36
   2   8  -9 16.4326 56.3311  20
   2   8  -9 7.85193 41.0757  31
   2   8  -9 52.5987 41.4913  30
   2   8  -8-10.4850 36.7086  22
   2   8  -8-14.8058 47.1613  36
   2   8  -8-25.3472 49.8483  20
   2   8  -8-1.24236 55.3039  31
   2   8  -7 24.3057 45.3792  23
   2   8  -7 10.0943 43.0864  36
   2   8  -7 57.1211 57.0634  31
   2   8  -7 81.2552 63.0902  20
   2   8  -7 16.2743 37.4913  22
   2   8  -6 346.713 79.8855  23
   2   8  -6 423.370 78.0063  22
   2   8  -6 253.874 77.4318  31
   2   8  -6 276.114 74.8422  20
   2   8  -5 10769.0 356.592  23
   2   8  -5 9793.42 320.278  22
   2   8  -5 9972.30 312.524  21
   2   8  -5 10037.9 324.791  20
   2   8  -5 10015.1 352.428  31
   2   8  -4 857.940 113.053  23
   2   8  -4 813.083 106.051  22
   2   8  -4 766.523 98.0717  21
   2   8  -4 741.215 103.370  31
   2   8  -3 5782.93 267.023  23
   2   8  -3 5921.26 226.172  21
   2   8  -3 5679.18 248.511  31
   2   8  -3 6289.89 268.430  12
   2   8  -2 2599.89 177.664  23
   2   8  -2 2631.89 173.481  12
   2   8  -1 102.644 53.0513  23
   2   8  -1 99.3632 57.5006  12
   2   8   0 75.7831 44.4349  23
   2   8   0 100.333 48.0806  12
   2   8   1 2355.57 117.766  12
  -2  -8  -2 2123.76 106.605  25
   2   9 -10 326.820 49.6781  20
   2   9  -9 306.918 61.8741  20
   2   9  -9 256.893 55.4278  31
   2   9  -9 230.140 47.9522  36
   2   9  -8 246.600 48.0862  22
   2   9  -8 164.938 57.0706  20
   2   9  -8 215.863 48.5841  36
   2   9  -8 226.569 62.1014  31
   2   9  -8 266.013 52.7719  24
   2   9  -7 774.541 92.7786  20
   2   9  -7 719.837 79.7186  22
   2   9  -7 758.642 103.298  31
   2   9  -6 135.242 60.3215  23
   2   9  -6 16.2639 48.8245  22
   2   9  -6 126.584 52.5370  20
   2   9  -6 145.977 62.0460  31
   2   9  -5 3030.50 170.415  22
   2   9  -5 2748.72 173.616  31
   2   9  -5 2905.41 181.745  23
   2   9  -4 19252.9 445.337  23
   2   9  -4 18539.1 415.986  22
   2   9  -4 18690.5 412.486  31
   2   9  -3 3761.86 190.748  22
   2   9  -3 3893.63 196.976  23
   2   9  -2 596.434 83.6705  23
   2   9  -1 326.926 54.0037  23
   2   9   1 688.649 52.3606  22
   2  10  -9 349.415 42.4315  20
   2  10  -8 54.9467 30.9989  20
   2  10  -8 62.3868 35.0782  31
   2  10  -8 45.7533 30.5965  24
   2  10  -7 40.2673 30.7114  22
   2  10  -7-3.61173 32.3494  20
   2  10  -7 42.8941 41.7633  31
   2  10  -6 60.5468 35.9818  22
   2  10  -6-0.60885 40.8520  31
   2  10  -5 1050.04 85.7989  22
   2  10  -5 1134.13 89.0984  31
   2  10  -5 1081.23 94.6192  23
   2  10  -4 38.9219 41.9438  23
   2  10  -4 42.9944 37.4828  22
   2  10  -3 2388.95 119.103  22
   2  10  -3 2451.57 121.500  23
   2  10  -2 6.67668 24.2816  23
   2  10  -2-20.0903 29.8449  22
  -3  12  -1 81.7394 27.9090  21
  -3  12  -2 822.928 61.1212  21
  -3  12  -3 352.453 47.2989  21
  -3  11   2 35.5086 20.4555  21
  -3  11   1 17.9390 32.5331  21
  -3  11   1 68.1213 32.2252  12
  -3  11   0 240.135 51.7314  21
  -3  11   0 268.591 47.5655  19
  -3  11   0 155.950 40.3682  12
  -3  11  -1 782.847 70.9017  22
  -3  11  -1 844.663 86.5492  21
  -3  11  -1 842.998 83.9083  19
  -3  11  -1 828.189 68.7021  12
  -3  11  -2 478.772 63.6005  22
  -3  11  -2 380.974 66.5275  21
  -3  11  -2 470.061 70.6570  19
  -3  11  -2 505.585 61.0474  24
  -3  11  -3 123.789 45.9652  22
  -3  11  -3 166.857 53.1732  21
  -3  11  -3 172.679 45.7918  24
  -3  11  -3 204.727 53.1161  19
  -3  11  -4 441.820 63.7434  22
  -3  11  -4 445.372 68.2481  21
  -3  11  -4 398.237 55.8985  20
  -3  11  -4 352.622 57.1183  19
  -3  11  -4 415.028 64.7237  24
  -3  11  -5 430.110 63.1976  24
  -3  11  -5 394.050 56.2624  20
  -3  11  -5 457.166 58.6233  14
  -3  11  -6-2.38134 29.9522  20
  -3  11  -7 776.393 63.1723  20
  -3  10   4 117.313 26.6545  12
  -3  10   3-0.62999 31.4559  12
  -3  10   2 48.6982 42.3910  12
  -3  10   1 17.2332 32.0830  19
  -3  10   1-14.8895 42.1313  37
  -3  10   1 4.48270 43.7505  12
  -3  10   0 399.987 65.1887  22
  -3  10   0 313.542 67.3129  19
  -3  10   0 350.191 65.3301  12
  -3  10   0 334.241 75.4973  37
  -3  10  -1 108.532 50.5826  19
  -3  10  -1 181.638 55.5998  22
  -3  10  -1 232.517 66.8341  37
  -3  10  -1 155.856 46.3195  12
  -3  10  -2 1194.49 110.541  22
  -3  10  -2 1028.04 110.877  21
  -3  10  -2 1217.68 113.703  37
  -3  10  -2 1197.26 107.784  24
  -3  10  -2 1255.99 119.687  19
  -3  10  -2 1063.65 114.873  14
  -3  10  -3 138.088 53.4853  22
  -3  10  -3 22.9650 53.6722  21
  -3  10  -3 142.495 48.7878  20
  -3  10  -3 105.700 53.2000  19
  -3  10  -3 158.285 58.6265  14
  -3  10  -3 117.065 48.2809  24
  -3  10  -4 5998.86 239.426  22
  -3  10  -4 5831.39 225.487  21
  -3  10  -4 6005.47 246.593  24
  -3  10  -4 6259.56 243.620  20
  -3  10  -4 5809.00 239.239  14
  -3  10  -4 5885.79 229.491  19
  -3  10  -5 2466.94 153.995  22
  -3  10  -5 2735.84 146.959  21
  -3  10  -5 2416.05 155.233  20
  -3  10  -5 2394.70 148.106  14
  -3  10  -5 2577.90 135.549  19
  -3  10  -5 2354.29 141.007  27
  -3  10  -5 2640.20 164.251  24
  -3  10  -6 166.971 56.1961  20
  -3  10  -6 185.937 49.6850  14
  -3  10  -6 192.862 51.2530  27
  -3  10  -6 139.235 56.9305  24
  -3  10  -7 658.771 79.3102  20
  -3  10  -7 511.779 57.6447  14
  -3  10  -7 635.992 72.3986  27
  -3  10  -8 298.439 46.9078  20
  -3  10  -8 332.812 48.0763  27
  -3   9   5 577.313 56.6391  12
  -3   9   4 33.4161 85.6419  35
  -3   9   4 1061.40 94.4135  12
  -3   9   3 83.5559 42.3864  37
  -3   9   3-1.18358 107.373  35
  -3   9   3-6.05038 47.9257  12
  -3   9   2 5213.36 227.540  37
  -3   9   2 5400.86 209.384  19
  -3   9   1 2043.32 149.791  19
  -3   9   1 1758.75 144.792  37
  -3   9   1 1795.71 144.857  12
  -3   9   0 987.609 113.776  19
  -3   9   0 1094.58 113.621  12
  -3   9   0 975.312 114.490  37
  -3   9   0 1038.30 107.615  22
  -3   9  -1 5794.81 242.341  22
  -3   9  -1 5169.67 317.766  35
  -3   9  -1 6161.22 270.999  14
  -3   9  -1 6001.55 263.208  19
  -3   9  -1 6066.64 236.029  12
  -3   9  -1 6218.01 266.042  37
  -3   9  -1 6426.56 246.508  24
  -3   9  -2 3619.64 196.595  22
  -3   9  -2 3589.72 197.993  37
  -3   9  -2 3612.22 204.985  19
  -3   9  -2 3537.84 206.201  14
  -3   9  -2 3668.09 198.736  24
  -3   9  -3 9179.49 295.658  37
  -3   9  -3 9523.30 320.375  20
  -3   9  -3 8799.82 298.253  21
  -3   9  -3 9011.51 311.007  22
  -3   9  -3 8777.82 306.649  19
  -3   9  -3 8777.98 318.948  14
  -3   9  -3 9141.92 317.740  24
  -3   9  -4 4555.90 209.465  21
  -3   9  -4 4888.67 238.509  20
  -3   9  -4 4680.09 214.610  19
  -3   9  -4 4563.99 224.478  22
  -3   9  -4 4495.50 227.987  14
  -3   9  -4 4655.86 233.166  24
  -3   9  -5 2206.89 141.065  21
  -3   9  -5 2041.78 159.203  20
  -3   9  -5 2095.71 154.268  22
  -3   9  -5 1943.98 129.199  19
  -3   9  -5 1755.27 142.601  14
  -3   9  -5 1852.68 151.403  24
  -3   9  -6 817.253 104.258  20
  -3   9  -6 763.086 93.7070  14
  -3   9  -6 871.832 105.852  24
  -3   9  -7 26.5811 47.4193  20
  -3   9  -7 111.392 45.4368  14
  -3   9  -8 937.127 90.6411  27
  -3   9  -8 741.670 76.4300  20
  -3   9  -8 862.431 67.8422  14
  -3   9  -9 490.250 51.8225  27
  -3   8   6 30.9879 25.6027  11
  -3   8   6 23.1207 31.0232  12
  -3   8   5 1707.37 113.201  11
  -3   8   4 629.601 80.0244  11
  -3   8   4 731.578 79.8161  37
  -3   8   3 2624.99 163.089  37
  -3   8   2 2847.04 180.487  37
  -3   8   2 3153.03 176.426  19
  -3   8   1 92253.2 971.817  19
  -3   8   1 94310.6 1013.07  37
  -3   8   0 13310.9 357.168  22
  -3   8   0 13540.9 384.950  37
  -3   8   0 14308.8 475.536   8
  -3   8   0 13432.5 390.235  14
  -3   8  -1 94.4319 46.5828  22
  -3   8  -1 11.4178 44.2524   8
  -3   8  -1 60.1854 45.8089  37
  -3   8  -1 70.8553 127.789  35
  -3   8  -1-16.9206 63.6011  29
  -3   8  -1 19.5251 48.8666  14
  -3   8  -2 291.627 67.9367  22
  -3   8  -2 352.387 74.3592  20
  -3   8  -2 221.348 65.0897  14
  -3   8  -2 363.944 67.7813  37
  -3   8  -2 351.627 65.9487   8
  -3   8  -2 302.980 67.2179  24
  -3   8  -3 3263.40 187.766  22
  -3   8  -3 3281.11 179.451  21
  -3   8  -3 3191.89 192.092  20
  -3   8  -3 3417.40 177.748  37
  -3   8  -3 3650.86 253.127   8
  -3   8  -3 3227.16 191.665  24
  -3   8  -4 352.176 80.0362  22
  -3   8  -4 214.998 58.6490  21
  -3   8  -4 241.740 75.9760  20
  -3   8  -4 243.859 65.9819  19
  -3   8  -4 156.973 64.7983  24
  -3   8  -5 3107.25 191.688  22
  -3   8  -5 3124.91 199.919  20
  -3   8  -5 2704.07 199.070  34
  -3   8  -5 3064.31 196.392  24
  -3   8  -6 697.335 109.991  34
  -3   8  -6 593.668 97.8961  20
  -3   8  -6 580.506 107.652  18
  -3   8  -6 600.243 94.6489  24
  -3   8  -7 112.498 60.2463  20
  -3   8  -7 206.307 73.7925  34
  -3   8  -7 222.578 79.2203  18
  -3   8  -8 18.2442 35.6811  20
  -3   8  -8 72.3654 54.2121  34
  -3   8  -8 17.9443 49.6910  18
  -3   8  -9 12.2724 38.6246  34
  -3   8  -9 27.4065 31.1203  27
  -3   7   7 119.275 40.8880  11
  -3   7   7 7.65340 65.9647  35
  -3   7   6 1081.06 106.512  11
  -3   7   5 224.773 62.5490  11
  -3   7   4 503.459 86.4713  11
  -3   7   4 599.269 81.5392  37
  -3   7   3 10497.7 331.657  11
  -3   7   3 10393.2 324.865  37
  -3   7   2 119393. 1100.16  37
  -3   7   2 119738. 1266.84   4
  -3   7   1 85.3543 43.2232  37
  -3   7   1 18.6324 44.3173   8
  -3   7   0 12604.7 419.230   8
  -3   7  -1 66.0311 44.3562   8
  -3   7  -2 8124.31 343.018   8
  -3   7  -3 3947.39 206.768  20
  -3   7  -3 3893.37 199.068  24
  -3   7  -3 4052.29 221.440  34
  -3   7  -3 3812.51 238.203   8
  -3   7  -4 234.939 65.1184  20
  -3   7  -4 39.6552 52.8473  18
  -3   7  -4 62.6860 48.0376  34
  -3   7  -4 115.446 54.9798  30
  -3   7  -4-10.6970 60.9181  29
  -3   7  -4 157.887 47.1355   8
  -3   7  -4 10.0994 43.2328  24
  -3   7  -5 20247.9 487.491  20
  -3   7  -5 19885.8 522.814  18
  -3   7  -5 20137.2 512.184  34
  -3   7  -5 19817.1 480.953  30
  -3   7  -5 19917.8 477.448  24
  -3   7  -6 30204.7 594.610  20
  -3   7  -6 30566.8 611.675  30
  -3   7  -6 30984.0 640.280  34
  -3   7  -6 31145.5 656.945  18
  -3   7  -7 4072.13 209.632  20
  -3   7  -7 4290.71 242.874  18
  -3   7  -7 3870.94 227.560  34
  -3   7  -7 3842.46 221.889  30
  -3   7  -8 916.701 89.4525  20
  -3   7  -8 918.150 111.264  34
  -3   7  -8 948.827 112.873  18
  -3   7  -9 642.040 79.1931  18
  -3   7  -9 771.771 83.1342  34
  -3   7  -9 784.979 74.8662  27
  -3   6   8 663.180 71.7714  11
  -3   6   7 2217.72 151.966  11
  -3   6   6 1733.47 148.347  11
  -3   6   6 1727.66 147.128  32
  -3   6   5 2773.07 188.477  11
  -3   6   5 2783.05 185.167  32
  -3   6   4 461.891 80.6209  11
  -3   6   4 296.227 69.3590   4
  -3   6   4 338.210 65.4916  37
  -3   6   3 7225.56 318.938   4
  -3   6   3 7305.19 260.874  37
  -3   6   2 3856.59 209.437   8
  -3   6   2 4553.56 232.555   4
  -3   6   1 14296.5 402.723   8
  -3   6   1 14257.5 375.387   4
  -3   6   0 90560.7 1019.77   8
  -3   6   0 92879.4 867.341   4
  -3   6  -1 25756.1 548.522   8
  -3   6  -2 1469.57 137.258   8
  -3   6  -3 3839.56 221.830   8
  -3   6  -4 4106.17 228.077   8
  -3   6  -5 41499.6 678.495  20
  -3   6  -5 41408.3 712.788  34
  -3   6  -5 41886.9 697.830  30
  -3   6  -5 42497.1 736.331  18
  -3   6  -5 41223.2 664.714  24
  -3   6  -6 63005.6 832.968  20
  -3   6  -6 64745.9 913.423  34
  -3   6  -6 63898.0 935.152  18
  -3   6  -6 64149.2 898.036  30
  -3   6  -7 7458.60 273.286  20
  -3   6  -7 7667.62 321.565  18
  -3   6  -7 7514.47 313.869  34
  -3   6  -7 7581.75 312.943  30
  -3   6  -8 547.826 92.9174  18
  -3   6  -8 571.940 91.7070  34
  -3   6  -9 8.83571 39.4289  34
  -3   6  -9 2.07734 41.7129  18
  -3   6  -9-31.4989 31.9185  27
  -3   6 -10 190.604 34.3321  18
  -3   6 -10 203.303 34.5103  34
  -3   5   9 1640.29 99.1431  11
  -3   5   8 1087.26 110.563  11
  -3   5   8 1231.73 116.045  32
  -3   5   7 13224.7 399.948  11
  -3   5   7 13460.9 401.931  32
  -3   5   6 9089.66 341.213  11
  -3   5   6 9017.97 336.637  32
  -3   5   5 2027.33 159.521  11
  -3   5   5 1772.81 174.938   4
  -3   5   4 3153.38 214.800   4
  -3   5   3 38350.0 674.405   4
  -3   5   2 5035.14 224.470   4
  -3   5   2 5062.28 214.222   8
  -3   5   1 17409.9 376.461   4
  -3   5   1 16906.2 396.565   8
  -3   5   0 3148.16 173.678   8
   3  -5   0 2888.14 151.968   2
   3  -5   1 94518.8 806.962   2
  -3   5  -1 92103.3 947.867   8
   3  -5   2 28663.0 432.728   2
  -3   5  -2 28093.1 529.262   8
  -3   5  -3 68341.2 840.033   8
  -3   5  -4 733.678 92.0831   8
  -3   5  -5 178.466 60.8370  20
  -3   5  -5 85.0180 58.8298  18
  -3   5  -5 102.429 53.7790  30
  -3   5  -6 1837.67 142.506  20
  -3   5  -6 1867.14 165.050  18
  -3   5  -6 1904.24 164.556  30
  -3   5  -7 343.084 81.7909  18
  -3   5  -7 337.041 86.1551  30
  -3   5  -8 358.573 81.0878  18
  -3   5  -8 296.322 62.3665  27
  -3   5  -9 387.332 67.0905  18
  -3   5  -9 364.561 64.5040  34
  -3   5 -10 1746.69 79.9990  34
   3  -5  10 1806.65 84.0385  16
  -3   4  10 79.3570 27.5698  11
  -3   4   9 421.969 71.8258  11
  -3   4   9 465.340 80.0351  32
  -3   4   8 188.079 74.3407  11
  -3   4   8 114.877 59.5380  32
  -3   4   7 12.7124 51.5868  11
  -3   4   7 76.5887 63.3410  32
  -3   4   6-35.7554 46.8832  11
  -3   4   6 6.85878 48.0768  32
  -3   4   6-96.8964 61.4496   4
  -3   4   5 3311.68 224.122   4
  -3   4   4 8711.23 325.343   4
  -3   4   3 3775.71 193.892   4
  -3   4   3 3779.11 165.427   8
  -3   4   2 29851.9 491.247   4
  -3   4   2 28912.6 459.971   8
  -3   4   1 43721.5 546.710   4
   3  -4   0 482059. 1803.94   2
   3  -4   1 2389.02 128.439   2
   3  -4   2 71976.3 697.299   2
  -3   4  -3 335.744 65.2701   1
   3  -4   3 299.527 56.0355   2
   3  -4   4 170.895 50.8420   2
  -3   4  -4 148.327 57.2189   1
  -3   4  -4 117.569 36.2754   8
  -3   4  -5 5475.82 284.808   1
  -3   4  -5 5235.71 251.533   9
  -3   4  -5 5713.26 252.224  30
  -3   4  -6 5702.33 276.187   9
  -3   4  -6 5398.67 262.485  18
  -3   4  -6 5854.62 268.464  30
  -3   4  -7 11737.0 385.143  18
  -3   4  -7 11921.1 381.500  30
  -3   4  -8 1276.81 127.221  18
  -3   4  -9 20.2867 34.6118  18
  -3   4  -9 60.6076 41.1349  34
   3  -4   9 45.0564 35.4154  28
   3  -4   9 43.0811 42.8502  16
   3  -4  10 40.9414 24.8451  16
  -3   3  10 148.369 44.9349  11
  -3   3  10 106.383 48.4961  32
   3  -3 -10 85.2105 29.8736   9
  -3   3   9 1468.19 129.095  11
   3  -3  -9 1455.76 118.917   9
  -3   3   9 1815.38 150.535  32
  -3   3   8 88.4170 65.1111  11
   3  -3  -8-25.0696 44.9032   9
  -3   3   8 105.349 69.5099  32
  -3   3   7 5000.86 251.235  11
  -3   3   7 4791.73 254.107  32
  -3   3   6 12446.0 430.143   4
  -3   3   5 2406.36 176.156   4
  -3   3   4 89424.5 941.732   4
  -3   3   3 3426.11 169.984   4
  -3   3   2 6084.56 204.911   4
  -3   3   1 17465.4 323.364   4
   3  -3   0 78.2937 38.7193   2
   3  -3   1 7947.00 227.050   2
  -3   3  -2 5247.56 194.065   1
   3  -3   2 4978.78 191.107   2
   3  -3   3 7409.37 251.494   2
  -3   3  -3 6982.14 250.266   1
  -3   3  -4 326.202 68.4581   1
   3  -3   4 431.728 73.0805   2
  -3   3  -5 15003.8 425.306   9
  -3   3  -5 13899.3 442.910   1
  -3   3  -6 217.874 68.8518   9
  -3   3  -6 230.878 75.6221  18
  -3   3  -6 114.999 55.9166  30
  -3   3  -7 43.6958 60.4707  18
  -3   3  -8 779.395 97.4145  18
   3  -3   8 586.225 82.2492  28
  -3   3  -9 484.165 59.9220  18
   3  -3   9 591.203 73.5424  16
   3  -3   9 467.588 58.5995  28
   3  -2 -11 151.997 31.2189   9
  -3   2  10 2849.50 151.228  11
   3  -2 -10 2789.59 157.886   9
  -3   2  10 3062.43 175.864  32
  -3   2   9 5402.04 246.281  11
   3  -2  -9 5381.82 248.868   9
  -3   2   9 5464.18 263.810  32
  -3   2   8 1496.63 143.018  11
   3  -2  -8 1252.86 133.693   9
  -3   2   8 1484.63 149.956  32
  -3   2   7-48.0226 50.7233  11
  -3   2   7 1.71760 57.2131  32
  -3   2   7 66.3997 69.5784   4
  -3   2   6 8848.69 332.603   4
  -3   2   5 92061.1 966.570   4
  -3   2   4 33414.1 524.346   4
  -3   2   3 194.615 48.3247   4
  -3   2   2 3451.97 138.953   6
  -3   2   2 3193.00 141.875   4
  -3   2   1 9797.23 202.777   6
   3  -2  -1 9712.33 242.809   2
  -3   2   0 403.308 37.6369   6
   3  -2   0 286.908 53.2863   2
  -3   2  -1 15565.5 167.110   6
   3  -2   1 15475.7 321.054   2
  -3   2  -2 15358.7 311.608   1
   3  -2   2 15177.1 344.396   2
   3  -2   3 6790.41 254.591   2
  -3   2  -3 6806.40 244.444   1
  -3   2  -4 3816.34 209.596   1
   3  -2   4 3358.23 199.617   2
   3  -2   4 3749.45 192.019   4
  -3   2  -5 332.637 73.4759   9
  -3   2  -5 108.767 49.5368  30
  -3   2  -5 288.024 66.2210  18
  -3   2  -5 268.939 73.7375   1
  -3   2  -6 21.5097 58.1540   9
  -3   2  -6 4.33967 44.9593  18
  -3   2  -7 685.410 95.1489  18
  -3   2  -8 43.9107 42.7651  18
   3  -2   8 42.3904 47.9562  16
   3  -2   8 22.4382 41.9083  28
   3  -2   9 223.601 45.8547  16
   3  -2   9 210.644 43.1957  28
   3  -1 -11 2155.62 125.680   9
  -3   1  11 2103.46 125.269  32
  -3   1  10 13443.9 335.000  11
  -3   1  10 14131.7 393.246  32
   3  -1 -10 14609.8 393.791   9
  -3   1   9 21802.1 485.166  11
  -3   1   9 21058.6 521.884  32
   3  -1  -9 22752.6 529.522   9
  -3   1   8 6793.92 278.214  11
  -3   1   8 7556.17 313.810  32
  -3   1   7 6154.83 280.304   4
  -3   1   6 9385.68 313.667   4
  -3   1   5 2696.99 152.418   4
  -3   1   4 12873.4 315.110   6
  -3   1   4 13423.6 306.532   4
  -3   1   3 77546.0 679.705   6
  -3   1   3 77564.1 681.048   4
  -3   1   2 122873. 778.138   6
   3  -1  -2 121395. 831.955   2
   3  -1  -1 3802.19 150.576   2
   3  -1   0 14540.2 298.804   2
  -3   1   0 15265.6 245.736   7
  -3   1   0 15016.4 190.844   1
  -3   1  -1 14813.7 255.762   1
  -3   1  -1 14768.2 232.961   7
   3  -1   1 14986.2 327.064   2
   3  -1   2 93419.7 894.834   2
  -3   1  -2 94701.3 787.042   1
  -3   1  -3 15231.9 373.822   1
   3  -1   3 14563.3 394.794   2
  -3   1  -4 2904.54 190.916   1
   3  -1   4 2944.72 185.943   4
  -3   1  -5 2804.23 212.208   1
  -3   1  -5 2608.96 181.976   9
   3  -1   5 2511.91 189.259   4
   3  -1   5 2876.47 170.815  11
  -3   1  -6 4942.30 252.037   9
  -3   1  -6 5696.04 249.543  18
   3  -1   6 5335.32 259.989  28
   3  -1   6 5185.53 225.394  11
  -3   1  -7 1198.57 111.027  18
   3  -1   7 1327.55 131.803  16
   3  -1   7 1235.90 126.574  28
   3  -1   8 1862.76 130.136  28
   3  -1   8 1967.02 133.116  16
   3  -1   9 109.693 30.6692  28
   3  -1   9 72.7173 25.3166  16
   3   0 -12 103.438 30.4250   9
   3   0 -12 77.7003 27.2421  18
   3   0 -11 11199.5 314.543   9
  -3   0  11 11172.1 297.110  32
  -3   0  10 35540.3 630.381  32
   3   0 -10 36531.1 657.441   9
   3   0  -9 4747.92 250.451   9
  -3   0   9 4542.38 245.854  32
  -3   0   8 2401.07 172.871  32
   3   0  -7 956.986 112.546   1
  -3   0   7 957.830 105.462   4
  -3   0   6-40.3702 34.6741   4
  -3   0   5 5.64301 38.6841   6
  -3   0   5 26.5501 33.6720   4
   3   0  -4 3101.67 104.454   1
  -3   0   4 2968.15 148.302   6
  -3   0   4 2880.68 135.150   4
   3   0  -3 116095. 814.295   2
   3   0  -3 118453. 331.317   1
   3   0  -2 1819.24 104.397   2
   3   0  -1 218.988 46.2491   2
  -3   0   1 281.630 50.4949   7
   3   0   0 21748.2 378.058   2
  -3   0   0 20882.2 330.129   7
   3   0   1 28615.5 474.896   2
  -3   0  -1 27911.6 386.752   7
   3   0   2 6809.98 260.263   2
  -3   0  -2 6775.01 200.903   7
   3   0   3 6010.26 273.924   2
   3   0   4 8846.34 314.793  28
   3   0   4 8862.98 346.906   4
   3   0   5 5508.15 266.466  16
   3   0   5 5808.78 275.216  28
   3   0   5 5507.28 246.905  11
   3   0   6 992.652 121.815  16
   3   0   6 1019.74 122.752  28
   3   0   6 1077.44 108.618  11
   3   0   7 321.186 58.1295  11
   3   0   7 442.838 84.5183  28
   3   0   7 339.645 72.8451  16
   3   0   8 24.3276 31.8224  16
   3   0   8 61.4901 38.8329  28
   3   1 -12 960.765 69.0822  18
   3   1 -12 1021.49 83.9911   9
   3   1 -11 6168.75 249.854   9
  -3  -1  11 6304.68 228.562  32
   3   1 -10-11.3507 50.7534   9
  -3  -1  10-17.0347 53.0071  32
  -3  -1   9 4476.63 235.616  32
   3   1  -9 4196.65 235.074   9
   3   1  -8 3093.28 203.664   3
  -3  -1   8 2817.78 182.011  32
   3   1  -7 4768.78 217.547   1
   3   1  -7 4219.43 224.921   3
  -3  -1   6 12454.9 354.628   6
   3   1  -6 12742.5 304.429   1
  -3  -1   6 12365.0 304.325   4
  -3  -1   5 526.956 75.7542   6
   3   1  -5 573.247 58.2006   1
   3   1  -4 10684.6 179.986   1
   3   1  -4 10355.9 239.863   2
   3   1  -3 1962.71 103.700   2
  -3  -1   3 2303.61 134.702   7
   3   1  -2 54927.4 537.965   2
  -3  -1   2 55423.2 611.453   7
   3   1  -1 34330.1 455.028   2
  -3  -1   1 34098.9 476.756   7
   3   1  -1 34787.0 370.390   3
   3   1   0 1185.14 99.6970   2
  -3  -1   0 1001.27 86.1421   7
   3   1   1 6137.44 236.859   2
  -3  -1  -1 5991.03 213.201   7
   3   1   2 3663.90 206.962   2
  -3  -1  -2 3769.36 179.142   7
   3   1   3 41099.2 742.013   4
   3   1   4 45037.3 836.737   4
   3   1   4 42110.8 711.689  16
   3   1   4 44582.4 737.330  28
   3   1   4 43378.4 701.069  11
  -3  -1  -5 20147.5 456.206  25
   3   1   5 19809.7 494.295  16
   3   1   5 19794.9 508.003  28
   3   1   5 19745.9 477.655  11
   3   1   6 173.808 57.8908  11
   3   1   6 162.921 58.7963  16
   3   1   6 229.733 72.5119  28
   3   1   7 2669.46 139.845  16
   3   1   7 2555.58 153.524  28
   3   1   7 2526.35 133.980  11
   3   1   8 1054.09 70.5116  28
   3   2 -12 232.121 52.1781   9
   3   2 -12 116.795 30.5872  18
   3   2 -11 15.0692 46.9623   9
  -3  -2  11 85.2235 40.1627  32
   3   2 -11 135.065 51.3673  18
  -3  -2  10 27.4813 41.4450  32
   3   2 -10 24.8128 48.3970   9
   3   2  -9 1893.64 160.624   9
  -3  -2   9 1634.76 146.198  32
   3   2  -8 2555.10 189.643   3
  -3  -2   8 2576.01 170.463  32
  -3  -2   7 96.3792 49.4351   6
   3   2  -7 252.041 72.0273   3
  -3  -2   6 1729.43 136.427   6
   3   2  -6 1827.23 144.919   3
   3   2  -5 3756.31 188.704   3
   3   2  -4 11412.9 229.937   2
   3   2  -4 11125.2 299.480   3
   3   2  -3 94395.5 807.595   3
   3   2  -3 93787.9 670.581   2
  -3  -2   3 93594.5 884.642   7
   3   2  -2 54095.9 560.490   3
  -3  -2   2 54793.1 665.518   7
   3   2  -2 55724.0 551.544   2
   3   2  -1 670.540 70.4358   2
   3   2  -1 747.084 61.7339   3
   3   2   0 3154.11 165.282   2
  -3  -2   0 3330.09 176.280   7
   3   2   1 658.695 85.8761   2
  -3  -2  -1 718.164 88.0345   7
  -3  -2  -2 202.207 55.7634   7
   3   2   2-23.8287 40.9001   4
   3   2   3 30905.1 592.674  16
   3   2   3 31650.5 701.291   4
   3   2   3 31451.1 615.826  28
   3   2   3 31912.3 604.094  11
   3   2   4 162575. 1379.93  16
   3   2   4 161614. 1444.35  28
   3   2   4 161732. 1390.88  11
   3   2   5 1689.99 140.713  16
   3   2   5 1661.60 151.736  28
  -3  -2  -5 1486.93 130.614  25
   3   2   5 1601.42 142.550  11
   3   2   6 634.236 92.5339  28
   3   2   6 891.138 88.7265  16
  -3  -2  -6 679.245 76.3756  25
   3   2   6 689.040 85.1608  11
   3   2   7 279.314 44.9480  11
   3   2   7 313.003 54.0512  28
   3   3 -12 335.589 51.7252  30
   3   3 -12 321.648 55.1588   9
   3   3 -11 336.398 63.5805  18
   3   3 -11 265.996 64.6596   9
   3   3 -10 390.285 76.7415   9
   3   3 -10 459.609 78.2454  36
   3   3  -9 1083.94 120.157   9
  -3  -3   9 1094.93 115.441  32
   3   3  -8 8131.08 346.933   3
   3   3  -8 8267.12 295.135   9
  -3  -3   8 7723.30 285.321  32
  -3  -3   7 1631.72 141.423   6
   3   3  -7 1526.63 147.612   3
   3   3  -6 2271.41 172.309   3
   3   3  -5 31957.2 579.238   3
   3   3  -4 2576.47 155.393   3
  -3  -3   4 2441.83 161.841   7
   3   3  -3 24055.1 438.870   3
  -3  -3   3 23613.8 485.506   7
   3   3  -2 13042.5 304.342   3
   3   3  -2 13987.0 287.401   2
  -3  -3   2 12864.8 363.978   7
   3   3  -1 61647.1 687.070   2
  -3  -3   1 59786.1 798.576   7
  -3  -3   0 6100.84 268.928   7
   3   3   1 9527.16 354.040   4
  -3  -3  -1 9980.88 361.027   7
   3   3   2 34971.4 731.406   4
   3   3   2 33876.2 606.958  16
   3   3   2 34382.3 644.197  28
  -3  -3  -2 34487.4 693.271   7
   3   3   2 34887.2 629.692  11
   3   3   3 30320.0 584.581  16
   3   3   3 31007.0 633.180  28
   3   3   3 30323.0 605.087  11
   3   3   4 1515.36 133.553  16
   3   3   4 1482.61 145.880  28
   3   3   4 1329.74 136.136  11
   3   3   5 5131.89 235.699  28
  -3  -3  -5 4727.83 209.582  25
   3   3   5 5354.44 230.494  11
   3   3   6 297.211 52.4331  11
   3   3   6 324.283 57.7766  28
  -3  -3  -6 309.621 48.1308  25
   3   4 -12 33.6089 28.4544   9
   3   4 -12 56.8392 37.5256  30
   3   4 -11 73.3528 46.1236  36
   3   4 -11 129.207 48.8971   9
   3   4 -10 152.814 63.3558  36
   3   4 -10 84.8269 51.0335   9
   3   4  -9 10.4690 40.8051  20
   3   4  -8 251.579 66.2969   3
  -3  -4   7 633.813 94.0616   6
   3   4  -7 700.272 102.031   3
   3   4  -6 326.104 80.7550   3
   3   4  -5 113.904 54.2315   3
  -3  -4   5 24.8367 64.9678   7
  -3  -4   4-4.25744 43.6357   7
   3   4  -4-20.4907 37.7890   3
  -3  -4   3 206.974 67.9951   7
   3   4  -3 209.774 51.9163   3
   3   4  -2 62677.8 729.322   5
  -3  -4   2 63436.7 895.561   7
   3   4  -1 25915.1 524.815   4
  -3  -4   1 26546.4 598.962   7
   3   4   0 1010.02 121.587   4
  -3  -4   0 1149.65 135.530   7
  -3  -4  -1-73.7588 42.5903   7
   3   4   1 31.9574 47.8038  11
   3   4   1-35.4977 47.4806  28
   3   4   1 20.1544 82.4807   4
   3   4   2 402.316 84.6703  11
   3   4   2 460.685 93.6714  28
   3   4   3 6.82407 55.5936  11
   3   4   3 36.7491 60.2425  28
   3   4   4 3504.06 196.278  28
  -3  -4  -4 3097.13 180.443  25
   3   4   4 3132.56 180.040  11
   3   4   5 364.323 62.7697  11
   3   4   5 379.364 63.7903  28
  -3  -4  -5 363.629 58.7222  25
   3   4   6 1157.06 64.1014  11
   3   5 -12-37.5684 31.2912  36
   3   5 -12 6.78102 34.8950  30
   3   5 -11 451.639 73.3483  36
   3   5 -10-7.57074 48.0868  20
   3   5 -10-18.9587 57.2333  36
   3   5  -9 196.949 69.3766  20
   3   5  -8 1362.58 126.187  31
   3   5  -8 1277.34 131.732  20
   3   5  -7 5548.06 304.828   3
   3   5  -6 10719.2 404.902   3
   3   5  -6 11127.6 360.553  10
   3   5  -5 6131.13 294.584   3
  -3  -5   5 6653.05 311.729   7
  -3  -5   4 304.509 89.3658   7
   3   5  -3 21107.2 490.089   5
  -3  -5   3 20425.5 553.461   7
  -3  -5   2 15436.6 494.671   7
   3   5  -1 26129.5 565.752  28
   3   5  -1 26756.8 500.254  12
  -3  -5   1 27008.1 664.015   7
   3   5   0 2383.68 181.654  28
   3   5   0 2474.99 154.959  12
  -3  -5   0 2609.81 215.147   7
   3   5   0 2488.34 164.576  11
   3   5   1 429.191 79.6184  11
   3   5   1 504.178 92.0095  28
   3   5   2 394.465 77.2866  11
   3   5   2 399.772 85.6113  28
   3   5   3 252.079 61.2838  11
  -3  -5  -3 258.471 71.7618  25
   3   5   3 147.281 58.4363  28
   3   5   4 1003.00 89.9743  28
   3   5   4 1081.40 92.0158  11
  -3  -5  -4 1029.72 93.1152  25
   3   5   5 604.508 50.1569  11
   3   6 -12 114.814 32.3375  36
   3   6 -12 115.005 38.9972  30
   3   6 -11 931.633 79.8308  20
   3   6 -11 882.344 92.9981  36
   3   6 -10 164.748 58.5545  20
   3   6 -10 58.8135 70.1883  36
   3   6  -9 321.437 67.9010  31
   3   6  -9 301.169 77.6953  20
   3   6  -8 767.362 107.993  20
   3   6  -8 671.962 101.525  31
   3   6  -7 19615.6 497.003  20
   3   6  -7 20440.9 446.648  23
   3   6  -6 6838.56 272.184  23
   3   6  -5 4114.40 216.654  23
   3   6  -5 4541.46 268.005   5
   3   6  -5 4432.11 230.192  10
  -3  -6   5 4526.02 279.936   7
  -3  -6   4-55.6344 59.6640   7
   3   6  -4-18.1792 58.3580  23
   3   6  -4 106.112 50.5428   5
   3   6  -4 192.137 62.4241  10
   3   6  -3 557.528 97.3354  23
   3   6  -3 657.105 97.7529  12
   3   6  -2 1022.47 114.339  12
   3   6  -2 1051.92 124.887  28
   3   6  -1 100.760 62.0950  28
   3   6  -1 179.981 64.7336  12
   3   6   0 3038.12 169.726  12
   3   6   0 3277.43 205.733  28
   3   6   0 3046.82 171.464  11
   3   6   1 56.0755 43.3468  23
   3   6   1 36.0759 41.0243  11
   3   6   1 143.159 59.7527  28
   3   6   2 1757.80 113.219  23
  -3  -6  -2 1718.14 134.143  25
   3   6   2 1715.02 131.662  28
   3   6   2 1672.02 120.344  11
   3   6   3 19.5281 33.1540  11
   3   6   3 23.9336 30.4086  28
  -3  -6  -3-3.83618 38.5147  25
  -3  -6  -4 2425.93 92.1864  25
   3   7 -11 2856.28 126.925  20
   3   7 -11 2874.35 140.444  36
   3   7 -11 2984.45 137.614  30
   3   7 -10 2009.62 137.443  20
   3   7 -10 2255.73 150.430  36
   3   7 -10 2070.45 117.673  31
   3   7  -9 2.82134 54.8013  36
   3   7  -9-7.76493 52.4685  20
   3   7  -9 51.5639 51.9770  31
   3   7  -8 736.812 101.931  36
   3   7  -8 696.398 104.551  20
   3   7  -8 778.323 106.993  31
   3   7  -7 4113.49 230.198  20
   3   7  -7 4037.15 230.302  31
   3   7  -7 4159.75 207.880  23
   3   7  -6 179.887 71.7018  23
   3   7  -6 279.752 72.8353  31
   3   7  -5 537.413 93.8010  23
   3   7  -5 649.513 86.3636  22
   3   7  -5 557.643 88.6403  20
   3   7  -4 9241.95 335.151  23
   3   7  -3 1026.63 123.915  23
   3   7  -3 837.299 106.589  31
   3   7  -2 1707.68 151.418  23
   3   7  -2 1923.09 148.942  12
   3   7  -1-35.2461 56.3548  23
   3   7  -1-5.14345 50.6059  28
   3   7  -1 4.34807 48.7085  12
   3   7   0 1125.66 108.585  23
   3   7   0 1305.40 119.950  28
  -3  -7   0 1213.95 112.185  25
   3   7   1 3782.54 153.824  23
   3   7   1 3896.00 172.115  28
  -3  -7  -1 3837.80 176.397  25
  -3  -7  -2 1599.62 99.4825  25
   3   8 -11 20.6861 24.8959  20
   3   8 -11 110.135 34.8890  36
   3   8 -10-3.09275 36.3026  20
   3   8 -10 8.89529 36.0870  36
   3   8 -10-43.7446 31.2748  31
   3   8  -9 27.1153 49.3865  20
   3   8  -9 18.7496 37.4310  31
   3   8  -9 52.5596 43.5629  36
   3   8  -8 52.2375 43.4242  36
   3   8  -8 21.5335 46.0977  31
   3   8  -8 38.6527 53.1034  20
   3   8  -7 1909.44 147.689  20
   3   8  -7 1755.12 151.371  31
   3   8  -7 1747.48 135.586  23
   3   8  -6 44.9306 55.2663  23
   3   8  -6 44.0698 40.7022  22
   3   8  -6 96.6048 59.7463  31
   3   8  -6 204.835 64.8301  20
   3   8  -5 4147.36 218.580  23
   3   8  -5 4067.67 192.112  22
   3   8  -5 3950.62 187.173  20
   3   8  -5 3833.15 211.054  31
   3   8  -4 12062.5 368.285  23
   3   8  -4 11827.1 348.792  31
   3   8  -4 12296.1 338.818  22
   3   8  -3 2581.69 172.993  23
   3   8  -3 2457.37 146.771  31
   3   8  -2 886.743 100.796  23
   3   8  -1 261.251 55.0070  23
  -3  -8   1 295.425 50.6585  25
   3   8   0 435.561 53.6782  23
  -3  -8   0 371.147 52.5089  25
  -3  -8  -1 542.601 46.9034  25
   3   9 -10 3.49332 24.1402  20
   3   9  -9 459.447 60.2632  20
   3   9  -9 468.291 59.1207  31
   3   9  -8-11.4854 39.5192  20
   3   9  -8 6.98579 36.7486  31
   3   9  -7 170.623 50.3090  23
   3   9  -7 198.107 48.6165  20
   3   9  -7 141.393 53.1439  31
   3   9  -6 430.055 73.3968  23
   3   9  -6 505.101 63.8487  22
   3   9  -6 431.326 75.7229  31
   3   9  -5 9557.23 247.691  22
   3   9  -5 9167.91 268.329  31
   3   9  -5 9344.57 280.856  23
   3   9  -4 6424.34 229.910  23
   3   9  -4 6089.81 201.811  22
   3   9  -4 6256.99 194.948  31
   3   9  -3 51.4117 46.5515  23
   3   9  -3 14.3991 39.5893  22
   3   9  -2 464.304 58.0899  22
   3   9  -2 562.376 62.9719  23
   3   9  -1-3.28923 24.0430  22
   3  10  -7 720.430 61.4726  31
   3  10  -7 702.850 55.4157  24
   3  10  -6 2383.81 100.086  31
   3  10  -5 3495.45 127.262  23
   3  10  -4 82.3659 28.2965  23
  -4  12  -1 2730.34 93.7830  21
  -4  12  -2 1012.99 61.2069  21
  -4  11   2-23.4435 32.1093  21
  -4  11   1 717.465 71.2246  21
  -4  11   1 729.712 61.3238  19
  -4  11   1 658.057 54.0140  12
  -4  11   0 122.990 44.9578  21
  -4  11   0 171.404 44.6363  19
  -4  11  -1 146.653 49.5090  21
  -4  11  -1 199.412 52.7267  19
  -4  11  -2 141.268 37.2086  22
  -4  11  -2 199.135 50.6283  21
  -4  11  -2 142.480 49.4846  19
  -4  11  -3-1.69457 34.3155  21
  -4  11  -3 29.4818 39.1828  19
  -4  11  -3 73.5467 43.5169  14
  -4  11  -4 28.3928 39.9696  14
  -4  11  -4-21.9279 32.3708  19
  -4  11  -5 61.7572 29.9412  14
  -4  11  -6-12.4918 23.0874  14
  -4  10   4 2940.79 109.960  12
  -4  10   3-1.75871 81.3050  35
  -4  10   3 416.370 59.1645  12
  -4  10   2 90.6374 35.7677  19
  -4  10   2 23.9255 103.919  35
  -4  10   2 88.6921 42.9055  37
  -4  10   2 114.226 43.6984  12
  -4  10   1-5.73618 46.2397  37
  -4  10   1 23.0375 36.7067  19
  -4  10   1 3.20409 111.687  35
  -4  10   1-9.30147 37.4812  12
  -4  10   0-29.6080 50.0940  19
  -4  10   0-30.2066 55.0953  37
  -4  10  -1 327.255 70.0654  37
  -4  10  -1 454.219 83.2670  19
  -4  10  -1 453.172 85.8300  14
  -4  10  -2 286.679 54.8581  22
  -4  10  -2 317.037 68.6615  21
  -4  10  -2 445.323 73.4687  37
  -4  10  -2 378.871 78.3905  19
  -4  10  -2 294.186 73.6689  14
  -4  10  -2 449.940 70.4362  24
  -4  10  -3 2309.22 141.032  22
  -4  10  -3 2261.15 137.977  21
  -4  10  -3 2385.03 149.490  20
  -4  10  -3 2220.97 157.459  14
  -4  10  -3 2425.95 153.274  19
  -4  10  -3 2198.27 131.236  37
  -4  10  -3 2440.50 151.795  24
  -4  10  -4 352.563 61.0197  21
  -4  10  -4 345.934 63.7908  19
  -4  10  -4 226.460 63.8607  20
  -4  10  -4 260.527 67.7628  14
  -4  10  -4 210.613 53.5861  27
  -4  10  -4 332.026 67.1891  24
  -4  10  -5 180.421 58.4286  20
  -4  10  -5 106.870 45.3014  27
  -4  10  -5 4.21461 67.2942  29
  -4  10  -5 123.779 51.7023  14
  -4  10  -6 207.976 54.3615  20
  -4  10  -6 183.741 47.8600  14
  -4  10  -6 173.547 48.4520  27
  -4  10  -7 134.326 33.0460  14
  -4  10  -7 139.198 38.8233  27
  -4   9   5 3.99352 76.6455  35
  -4   9   5 566.362 66.7443  12
  -4   9   4-13.2971 95.5731  35
  -4   9   4 30.5160 33.2759  37
  -4   9   3 1548.38 120.830  37
  -4   9   3 24.8106 107.276  35
  -4   9   2 3196.88 184.335  37
  -4   9   2 3001.86 167.848  19
  -4   9   1 2196.50 160.372  37
  -4   9   1 2181.25 154.847  19
  -4   9   0 147.721 61.8200  37
  -4   9   0 121.022 58.0344  19
  -4   9   0-59.3004 138.272  35
  -4   9   0 22.0211 56.4374  14
  -4   9  -1 4055.69 192.931  22
  -4   9  -1 3969.96 209.810  37
  -4   9  -1 4054.54 217.765  19
  -4   9  -1 4172.16 224.303  14
  -4   9  -1 4215.55 199.295  24
  -4   9  -2 46.8899 47.1760  22
  -4   9  -2 101.525 50.5498  20
  -4   9  -2 72.9607 48.0550  37
  -4   9  -2-3.06307 49.6624  19
  -4   9  -2 57.4863 57.1998  14
  -4   9  -2 74.3604 51.5391  24
  -4   9  -3 6259.51 247.250  22
  -4   9  -3 6390.15 235.132  21
  -4   9  -3 6134.22 261.417  20
  -4   9  -3 5987.56 265.104  14
  -4   9  -3 6335.59 251.567  27
  -4   9  -3 6343.08 256.368  19
  -4   9  -3 6153.77 258.782  24
  -4   9  -4 125.143 59.2699  20
  -4   9  -4 142.634 46.0936  19
  -4   9  -4 94.8880 52.8300  27
  -4   9  -4 59.4443 51.6606  24
  -4   9  -5 460.170 79.7063  20
  -4   9  -5 359.487 76.3283  27
  -4   9  -6 66.7898 53.3549  20
  -4   9  -6 6.06214 60.6058  29
  -4   9  -6 12.2266 46.8075  27
  -4   9  -7 1122.04 95.6351  20
  -4   9  -7 1109.32 99.7582  27
  -4   9  -8 231.197 45.2865  27
  -4   9  -8 190.812 31.3801  14
  -4   8   7 69.7281 24.0836  12
  -4   8   6 1015.21 79.4960  11
  -4   8   5 175.570 48.6819  11
  -4   8   5-11.5596 101.717  35
  -4   8   4-46.0081 42.7854  37
  -4   8   4-4.29227 125.094  35
  -4   8   3 7749.63 262.226  19
  -4   8   3 7173.98 273.795  37
  -4   8   2 1858.46 154.971  37
  -4   8   2 139.864 171.657  35
  -4   8   1 2871.61 189.471  37
  -4   8   1 3105.82 192.136  14
  -4   8   0 17007.4 441.302  14
  -4   8   0 17454.1 437.331  37
  -4   8  -1 369.127 70.4807  20
  -4   8  -1 239.050 68.9059  14
  -4   8  -1 266.091 65.1180  37
  -4   8  -1 317.903 67.5486  24
  -4   8  -2 3514.97 185.334  22
  -4   8  -2 4041.52 214.657  20
  -4   8  -2 3900.19 200.243  27
  -4   8  -2 3775.48 191.139  37
  -4   8  -2 3811.19 202.615  24
  -4   8  -3 516.680 81.6740  22
  -4   8  -3 649.481 97.6735  20
  -4   8  -3 595.576 95.1114  24
  -4   8  -4 1679.52 147.102  20
  -4   8  -4 1532.29 118.532  19
  -4   8  -4 1447.43 137.399  24
  -4   8  -5 3933.92 219.585  20
  -4   8  -5 3661.56 224.118  34
  -4   8  -6 822.561 103.042  20
  -4   8  -6 880.130 113.083  34
  -4   8  -7-29.1139 40.4727  20
  -4   8  -7 6.12682 49.9473  34
  -4   8  -7-31.5035 45.8415  27
  -4   8  -8 1179.62 91.9664  27
  -4   7   8 1691.54 79.6021  11
  -4   7   8 150.951 35.0772  12
  -4   7   7 381.354 63.3381  11
  -4   7   6 175.206 60.2290  11
  -4   7   5 1510.44 134.486  11
  -4   7   5 1532.50 119.482  37
  -4   7   4 806.440 103.762  11
  -4   7   4 1139.19 113.290  37
  -4   7   3 17589.9 432.205  37
  -4   7   2 74077.6 884.338  37
  -4   7   2 72452.2 1005.95   8
  -4   7   2 71285.8 855.645  14
  -4   7   1 22268.9 475.002  14
  -4   7   1 22838.9 579.274   8
  -4   7   1 21741.7 475.816  37
  -4   7   0 2778.36 209.849   8
  -4   7   0 2679.88 168.775  14
  -4   7   0 2648.90 166.390  37
  -4   7  -1 8.41128 36.6632  37
  -4   7  -1 36.8819 39.5226   8
  -4   7  -2 2379.51 147.319  22
  -4   7  -2 2601.25 171.849  20
  -4   7  -2 2631.61 204.223   8
  -4   7  -2 2580.83 163.719  24
  -4   7  -3 8201.81 281.749  22
  -4   7  -3 7931.61 306.044  20
  -4   7  -3 8239.91 320.417  34
  -4   7  -3 8598.93 368.858   8
  -4   7  -3 8041.48 296.004  24
  -4   7  -4 884.471 114.316  20
  -4   7  -4 832.919 123.156  18
  -4   7  -4 1035.69 128.803  34
  -4   7  -4 920.768 114.093  24
  -4   7  -5 55871.1 812.093  20
  -4   7  -5 55644.0 864.268  18
  -4   7  -5 54194.1 836.922  34
  -4   7  -6 5481.30 244.814  20
  -4   7  -6 5402.45 267.097  18
  -4   7  -6 5011.13 252.023  34
  -4   7  -7-39.0493 38.5856  20
  -4   7  -7-14.6152 53.1848  18
  -4   7  -7 38.9178 54.5840  34
  -4   7  -7 50.1365 47.0216  27
  -4   7  -8 39.3318 44.0198  18
  -4   7  -8 34.1413 40.7748  34
  -4   7  -8 36.0814 35.5119  27
  -4   6   9 0.77662 21.4950  11
  -4   6   8 737.924 83.4598  11
  -4   6   7 4740.74 225.623  11
  -4   6   7 4540.77 210.270  32
  -4   6   6 92.9277 63.6944  11
  -4   6   6 59.0306 50.2601  32
  -4   6   5 10995.7 365.480  11
  -4   6   5 11046.1 316.955  37
  -4   6   4-10.8140 40.1295  37
  -4   6   4-15.9825 47.8428   4
  -4   6   3 2521.33 190.204   4
  -4   6   3 2392.30 157.430  37
  -4   6   2 503.308 80.5753   8
  -4   6   2 479.283 89.7695   4
   4  -6  -1 933.473 110.971   2
  -4   6   1 613.822 94.9725   8
   4  -6   0 616.253 86.0055   2
  -4   6   0 198.045 66.2159   8
  -4   6  -1 5981.45 284.277   8
  -4   6  -2 17118.2 485.847   8
  -4   6  -3 15280.2 405.527  20
  -4   6  -3 14766.3 420.593  18
  -4   6  -3 15237.9 415.487  34
  -4   6  -3 14627.2 451.912   8
  -4   6  -3 15302.5 392.788  24
  -4   6  -4 71209.9 891.633  20
  -4   6  -4 71446.0 944.355  18
  -4   6  -4 70377.9 916.642  34
  -4   6  -4 69348.9 975.427   8
  -4   6  -5 1314.60 139.274  20
  -4   6  -5 1352.63 151.249  18
  -4   6  -5 1485.78 156.072  34
  -4   6  -6 914.275 104.376  20
  -4   6  -6 1106.29 128.521  18
  -4   6  -6 947.024 121.772  34
  -4   6  -7 34.2427 52.0576  18
  -4   6  -7-3.94345 44.7796  34
  -4   6  -7 1.75538 45.7294  27
  -4   6  -8 43.0823 37.6184  18
  -4   6  -8 32.5714 42.7065  34
   4  -6   8-2.76367 34.6323  16
  -4   6  -8-15.8387 30.3887  27
  -4   6  -9 755.886 58.0915  34
  -4   5   9-2.46191 38.4999  11
  -4   5   9 65.6474 39.9773  32
  -4   5   8 4014.81 208.918  11
  -4   5   8 4090.73 206.382  32
  -4   5   7 1681.98 152.637  11
  -4   5   7 1783.05 153.648  32
  -4   5   6 2231.56 174.831  11
  -4   5   6 2245.81 169.376  32
  -4   5   5 4008.44 190.699  37
  -4   5   5 4092.61 214.691  32
  -4   5   5 3736.87 249.788   4
  -4   5   4 1749.42 162.568   4
  -4   5   3 4665.64 242.363   4
  -4   5   3 4971.09 226.166   8
  -4   5   2 7617.51 284.976   8
  -4   5   2 7783.45 292.695   4
   4  -5  -1 38910.3 638.367   2
   4  -5   0 20257.3 443.312   2
   4  -5   1 12708.9 343.601   2
   4  -5   2 604.873 85.7283   2
  -4   5  -3 1992.37 155.206   8
  -4   5  -4 28029.5 538.362  20
  -4   5  -4 28122.1 570.326  18
  -4   5  -4 28039.4 557.873  34
  -4   5  -5 21285.9 471.596  20
  -4   5  -5 21419.5 515.432  18
  -4   5  -5 21435.3 507.772  34
  -4   5  -6 4367.93 234.569  18
  -4   5  -6 3925.52 221.106  34
  -4   5  -6 3843.81 213.523  27
  -4   5  -7-32.5377 45.7079  18
  -4   5  -7-11.9882 42.9546  34
  -4   5  -7 13.9013 34.0055  27
  -4   5  -8 137.608 48.7512  18
  -4   5  -8 101.737 43.7922  34
   4  -5   8 127.825 48.2098  16
   4  -5   9 500.698 50.2899  16
  -4   4  10 15.2430 30.6245  11
  -4   4  10-8.01423 37.5688  32
  -4   4   9 248.640 65.9466  11
  -4   4   9 399.588 78.3646  32
   4  -4  -9 294.138 53.4695   9
  -4   4   8 61.6644 57.4910  11
  -4   4   8 117.566 64.4841  32
   4  -4  -8 5.11736 36.8777   9
  -4   4   7 3925.63 228.387  11
  -4   4   7 3934.39 227.768  32
  -4   4   6 563.134 91.3879  32
  -4   4   6 700.265 117.668   4
  -4   4   5 100.616 45.3961   4
  -4   4   4 1789.55 153.728   4
  -4   4   3 1335.53 122.905   4
  -4   4   2 120.907 48.1213   4
   4  -4  -1 99216.8 965.288   2
   4  -4   0 41458.1 612.703   2
   4  -4   1 3332.76 178.381   2
   4  -4   2 1800.66 133.573   2
   4  -4   3 14148.4 391.393   2
  -4   4  -4 1039.43 105.987  20
  -4   4  -4 1060.20 126.059   1
   4  -4   4 1066.56 118.948   2
  -4   4  -5 5450.96 252.376  18
  -4   4  -5 5780.29 255.381  27
  -4   4  -6 1698.49 146.279  18
  -4   4  -6 1645.48 134.811  27
  -4   4  -7 3494.09 188.618  18
   4  -4   7 3544.75 201.781  16
  -4   4  -8 998.604 84.2456  18
  -4   4  -8 945.511 85.2095  34
   4  -4   8 983.138 94.6589  16
   4  -4   9 2295.55 97.0733  16
  -4   3  10 405.880 64.7762  11
  -4   3  10 450.331 73.9250  32
   4  -3 -10 397.535 61.4120   9
  -4   3   9 94.1502 56.9265  11
  -4   3   9 77.7409 59.2249  32
   4  -3  -9 100.850 48.2540   9
  -4   3   8 832.189 110.925  11
  -4   3   8 793.923 112.173  32
  -4   3   7 242.783 74.2542  32
  -4   3   6 127.141 61.0172   4
  -4   3   5 19605.1 498.406   4
  -4   3   4 4559.31 222.964   4
  -4   3   3 1207.70 112.686   4
   4  -3  -2 2688.65 162.813   2
   4  -3  -1 1955.02 135.931   2
   4  -3   0 3681.54 181.831   2
   4  -3   1 244.886 55.5837   2
  -4   3  -2 1071.61 95.0634   1
   4  -3   2 983.859 109.954   2
   4  -3   3 5015.51 245.577   2
  -4   3  -3 5740.64 242.271   1
  -4   3  -4 192.739 56.1579   1
  -4   3  -4 147.361 49.9265  27
  -4   3  -5 3430.36 196.866  18
   4  -3   5 3622.73 198.008  28
  -4   3  -6 24760.5 508.609  18
   4  -3   6 25423.6 517.067  28
  -4   3  -7 1401.03 114.606  18
   4  -3   7 1533.64 137.237  16
   4  -3   7 1396.99 116.941  28
  -4   3  -8 33.4837 25.7489  34
   4  -3   8 15.6611 39.8739  16
   4  -3   8 71.1312 35.6265  28
  -4   2  11 8.71027 25.0991  11
  -4   2  11 21.2659 36.1470  32
   4  -2 -11-39.9258 30.2174   9
  -4   2  10 323.181 63.6002  11
  -4   2  10 374.792 79.2992  32
   4  -2 -10 378.795 75.9142   9
  -4   2   9 1483.97 138.528  11
  -4   2   9 1701.85 154.747  32
   4  -2  -9 1523.78 141.942   9
  -4   2   8 17.1565 57.8548  32
  -4   2   7 2263.91 189.001   4
  -4   2   7 2686.85 183.358  32
  -4   2   6 50254.9 802.793   4
  -4   2   5 1993.63 147.419   4
  -4   2   4 40.7339 48.7405   4
  -4   2   3 45480.6 603.799   6
  -4   2   3 46069.1 619.295   4
  -4   2   2 1303.06 94.3505   6
   4  -2  -2 1477.70 116.857   2
  -4   2   1 13598.2 264.588   6
   4  -2  -1 14567.3 349.322   2
  -4   2   0 7905.72 182.037   6
   4  -2   0 8221.06 268.309   2
  -4   2  -1 16751.8 298.836   1
   4  -2   1 16553.7 399.781   2
   4  -2   2 26497.5 537.811   2
  -4   2  -2 25980.4 442.610   1
   4  -2   3 108.141 52.5039   2
   4  -2   4 2852.72 212.773   2
   4  -2   4 3153.73 203.696   4
   4  -2   4 3106.26 184.539  28
   4  -2   5 817.739 112.862  16
   4  -2   5 930.182 110.640  28
   4  -2   6 4120.48 229.310  16
   4  -2   6 3878.79 211.830  28
   4  -2   7 1024.76 111.802  16
   4  -2   7 826.228 92.7409  28
   4  -2   8 100.187 33.6026  28
   4  -2   8 96.9035 38.6225  16
   4  -1 -12-0.55249 19.4110   9
  -4   1  11 1843.63 127.755  32
   4  -1 -11 1669.93 121.213   9
  -4   1  10 681.980 87.4191  11
  -4   1  10 810.783 112.780  32
   4  -1 -10 615.451 101.056   9
  -4   1   9 4444.57 225.122  11
  -4   1   9 4737.38 251.284  32
  -4   1   8 328.028 83.7495  32
  -4   1   7 12297.6 400.638   4
  -4   1   6 37.9514 33.2219   4
  -4   1   5 7728.87 289.067   6
  -4   1   5 7546.03 273.006   4
  -4   1   4 43158.4 613.716   6
  -4   1   3 38819.1 545.610   6
   4  -1  -3 40024.1 570.050   2
   4  -1  -2 719.072 84.1337   2
   4  -1  -1 59790.6 697.925   2
   4  -1   0-0.34181 44.2576   2
   4  -1   1 135000. 1170.63   2
   4  -1   2 38958.4 683.302   2
   4  -1   3 3019.62 211.069   2
   4  -1   4 945.002 115.787  16
   4  -1   4 847.901 111.785  28
   4  -1   4 1182.70 139.818   4
  -4   1  -4 893.835 102.603  25
   4  -1   4 921.960 105.740  11
   4  -1   5 980.595 126.144  16
   4  -1   5 1114.04 123.939  28
   4  -1   5 981.157 106.139  11
   4  -1   6 476.738 70.0995  11
   4  -1   6 602.845 98.5850  16
   4  -1   6 498.616 87.0247  28
   4  -1   7 706.540 88.5280  16
   4  -1   7 722.249 84.4360  28
   4  -1   8 278.581 40.8547  16
   4  -1   8 187.965 33.8127  28
   4   0 -12 1914.50 105.374   9
  -4   0  12 1948.86 95.6557  32
   4   0 -11 5201.33 226.134   9
  -4   0  11 4945.57 213.963  32
   4   0 -10 1337.70 136.182   9
  -4   0  10 1270.70 136.320  32
  -4   0   9 558.144 100.886  32
  -4   0   8 1078.35 121.326  32
  -4   0   7 2951.79 185.904   4
  -4   0   6 2820.42 186.667   6
  -4   0   6 3333.01 184.334   4
  -4   0   5 58487.1 769.648   6
  -4   0   4 13809.7 351.174   6
   4   0  -4 14174.1 339.359   2
   4   0  -3 158031. 1098.95   2
   4   0  -2 71756.9 748.799   2
   4   0  -1 42370.3 592.472   2
  -4   0   1 41653.4 562.373   7
  -4   0   0 38442.0 534.286   7
   4   0   0 38354.9 604.816   2
   4   0   1 39970.3 667.718   2
  -4   0  -1 38829.6 545.002   7
   4   0   2 11993.8 401.392   2
   4   0   3 4607.92 238.062  16
   4   0   3 4679.25 274.235   2
   4   0   3 4689.24 233.134  28
   4   0   3 4191.26 251.004   4
  -4   0  -3 4422.46 217.312  25
   4   0   3 4544.70 220.838  11
   4   0   4 3312.47 209.644  16
   4   0   4 3311.43 207.496  28
  -4   0  -4 3382.85 194.750  25
   4   0   4 3363.81 199.589  11
   4   0   5 519.194 82.6745  11
   4   0   5 580.587 99.2866  16
   4   0   5 591.088 97.9728  28
  -4   0  -5 615.877 88.0321  25
   4   0   6 412.087 65.1320  11
   4   0   6 496.469 83.9336  16
   4   0   6 432.562 78.7307  28
   4   0   7 52.9213 37.5547  16
   4   0   7 49.5271 38.3460  28
   4   1 -12 1778.52 110.454   9
  -4  -1  12 1525.58 89.3939  32
   4   1 -11 993.580 111.494   9
  -4  -1  11 788.268 94.0902  32
  -4  -1  10 13.6253 70.8892  32
   4   1 -10 42.9446 53.0214   9
  -4  -1   9-0.96437 51.6413  32
   4   1  -8 79.8814 48.2120   3
  -4  -1   8-8.48525 45.0824  32
  -4  -1   7-64.3320 46.5427   6
  -4  -1   6 7499.43 293.913   6
   4   1  -6 8199.85 272.799   2
   4   1  -5 68412.1 734.065   2
   4   1  -4 784788. 2427.21   2
   4   1  -3 1027.54 94.3886   2
  -4  -1   3 1129.86 114.517   7
   4   1  -2 4548.78 191.442   2
  -4  -1   2 4759.08 212.316   7
   4   1  -2 4578.23 169.504   3
  -4  -1   1 1186.50 111.447   7
   4   1  -1 1238.00 109.703   2
  -4  -1   0 132.499 46.7219   7
   4   1   0-37.0938 36.0386   2
  -4  -1  -1 240.417 59.7328   7
   4   1   1-69.5245 46.6468   2
   4   1   2 3790.42 242.934   2
   4   1   2 3637.03 207.409  16
   4   1   2 3823.84 210.425  28
  -4  -1  -2 3761.37 204.326  25
   4   1   2 3867.04 206.257  11
   4   1   3 8905.32 334.870  16
   4   1   3 9411.82 346.121  28
  -4  -1  -3 8915.74 321.029  25
   4   1   3 9183.38 327.496  11
   4   1   4 4183.48 233.245  16
   4   1   4 4172.68 235.707  28
  -4  -1  -4 3919.40 214.615  25
   4   1   4 3983.97 220.556  11
   4   1   5-3.31593 49.5638  11
   4   1   5-22.0609 52.3081  16
   4   1   5-12.7199 52.6984  28
  -4  -1  -5 61.8241 45.7634  25
   4   1   6 106.318 41.3283  11
   4   1   6 162.714 49.7474  16
   4   1   6 86.1137 48.1068  28
   4   1   7 103.359 29.9743  28
  -4  -2  12 11.2500 28.2030  32
   4   2 -12 25.4259 38.6038   9
   4   2 -12-4.24263 26.6183  30
  -4  -2  11 297.787 63.0218  32
   4   2 -11 312.971 68.3288   9
   4   2 -10 3181.59 197.234   9
  -4  -2  10 3449.26 200.824  32
   4   2  -9 13567.4 403.606   9
  -4  -2   9 13157.7 400.597  32
   4   2  -8 2219.49 195.011   3
  -4  -2   8 1750.21 166.908   6
  -4  -2   8 1830.11 152.879  32
   4   2  -7 2124.65 180.116   3
  -4  -2   7 1690.39 149.828   6
  -4  -2   6 54238.1 807.793   6
   4   2  -6 56884.2 840.740   3
   4   2  -5 190194. 1437.96   3
   4   2  -4 5936.17 240.556   3
   4   2  -4 6412.57 208.574   2
   4   2  -3 104047. 924.430   3
  -4  -2   3 100820. 1067.50   7
   4   2  -3 102144. 862.100   2
   4   2  -2 4018.76 167.016   3
  -4  -2   2 4132.43 218.641   7
   4   2  -2 4077.35 184.960   2
   4   2  -1 1253.44 115.106   2
  -4  -2   1 1612.52 142.254   7
   4   2   0 1687.29 146.194   2
  -4  -2   0 1799.63 149.494   7
  -4  -2  -1 501.297 82.6591   7
   4   2   1 437.488 88.4628   2
   4   2   1 582.405 86.0338  11
   4   2   1 489.754 84.8322  28
   4   2   2 580.663 96.1543  11
   4   2   2 530.755 94.3082  16
   4   2   2 622.706 104.951  28
   4   2   2 601.089 105.162   4
  -4  -2  -2 773.165 112.798  25
   4   2   3 640.664 119.613  11
   4   2   3 710.969 125.411  28
   4   2   3 562.534 112.026  16
  -4  -2  -3 447.427 103.772  25
   4   2   4 5125.85 252.708  28
   4   2   4 5115.52 240.577  16
  -4  -2  -4 4711.59 224.857  25
   4   2   4 4997.49 237.931  11
   4   2   5 1575.77 130.874  28
   4   2   5 1824.69 124.732  16
  -4  -2  -5 1616.58 114.272  25
   4   2   5 1837.10 129.350  11
   4   2   6 121.749 36.4280  28
   4   3 -12 10.8145 29.9517   9
   4   3 -11-13.1146 37.9926   9
   4   3 -11-17.8380 34.9924  36
  -4  -3  11 3.75662 36.4906  32
  -4  -3  10 1902.92 147.149  32
   4   3 -10 1839.75 145.279   9
   4   3  -9 13323.7 380.488   9
  -4  -3   9 13383.3 393.966  32
  -4  -3   8 508.501 89.5966   6
   4   3  -8 352.163 76.2685   3
   4   3  -7 2809.83 212.098   3
  -4  -3   7 2301.09 180.646   6
  -4  -3   7 2449.61 168.451  32
   4   3  -6 886.431 118.088   3
   4   3  -5 1511.06 139.338   3
   4   3  -4 324.963 64.0660   3
  -4  -3   4 501.546 98.9987   7
   4   3  -3 10963.1 319.855   3
  -4  -3   3 10679.2 377.100   7
  -4  -3   2 19024.8 505.032   7
   4   3  -1 2557.40 168.912   2
  -4  -3   1 2723.39 201.810   7
   4   3   0 2723.85 183.597  28
   4   3   0 2833.20 203.011   4
  -4  -3   0 2562.48 196.615   7
   4   3   0 2757.21 175.819  11
   4   3   1 9744.65 343.933  16
   4   3   1 9907.39 357.721  28
  -4  -3  -1 9835.74 386.982   7
   4   3   1 10274.6 347.071  11
   4   3   2 975.184 124.618  16
   4   3   2 1307.41 147.067  28
  -4  -3  -2 1336.30 144.921  25
   4   3   2 1309.28 135.759  11
   4   3   3 12295.9 390.396  28
  -4  -3  -3 11613.8 364.699  25
   4   3   3 11813.1 365.309  11
   4   3   4 506.599 84.1467  11
   4   3   4 419.728 83.0335  28
  -4  -3  -4 399.472 77.3402  25
   4   3   5-2.91762 30.9255  11
   4   3   5 38.2700 36.2553  28
  -4  -3  -5-16.2172 32.3692  25
   4   4 -12 207.154 39.2749  36
   4   4 -11 3510.69 175.694  36
   4   4 -10 4170.31 199.407  20
  -4  -4   9 4067.14 211.195  32
  -4  -4   8 2394.29 168.386  32
  -4  -4   7 893.447 115.427   6
  -4  -4   7 849.424 105.043  32
   4   4  -7 915.570 130.508   3
   4   4  -6 6103.80 304.747   3
   4   4  -6 6598.07 282.424  10
   4   4  -5 325.766 81.5714   3
   4   4  -4 8626.24 326.390   3
  -4  -4   4 8359.34 364.354   7
  -4  -4   3 2537.50 207.029   7
   4   4  -2 11495.8 370.467   4
   4   4  -2 11699.3 376.963  28
  -4  -4   2 10892.7 424.095   7
   4   4  -1 7892.54 333.214   4
   4   4  -1 7705.79 315.600  28
  -4  -4   1 8613.66 380.191   7
  -4  -4   1 8666.81 309.649  25
   4   4  -1 8461.28 295.505  11
   4   4   0 11804.3 397.537  28
   4   4   0 11538.1 359.552  11
   4   4   1 668.518 112.722  28
  -4  -4  -1 780.197 111.856  25
   4   4   1 780.092 105.493  11
   4   4   2 2912.18 195.132  28
  -4  -4  -2 2784.96 187.693  25
   4   4   2 2949.37 185.872  11
   4   4   3 4278.50 214.020  28
  -4  -4  -3 4358.07 206.310  25
   4   4   3 4275.74 200.698  11
   4   4   4 760.593 79.3758  28
  -4  -4  -4 690.682 73.7065  25
   4   4   4 713.459 74.5492  11
   4   5 -12 33.0948 28.1849  36
   4   5 -11 189.642 44.9703  20
   4   5 -11 201.430 60.4915  36
   4   5 -10 590.377 87.7471  20
   4   5  -9 15.5543 52.4340  20
   4   5  -9 118.715 52.9754  31
  -4  -5   8 316.821 73.5290  32
  -4  -5   7 566.107 88.0321  32
   4   5  -6 2625.09 166.202  23
   4   5  -6 2674.22 190.931  10
   4   5  -5 1397.09 127.213  23
   4   5  -5 1524.64 144.762  10
   4   5  -5 1448.23 153.666   3
  -4  -5   5 1287.34 154.792   7
   4   5  -4 9126.13 332.152  10
  -4  -5   4 8977.19 400.239   7
   4   5  -3 6047.93 270.402  10
   4   5  -3 5718.73 275.573  28
  -4  -5   3 5683.02 323.560   7
   4   5  -2 781.647 106.499  10
   4   5  -2 770.984 114.235  28
  -4  -5   2 871.675 105.423  25
   4   5  -1 1117.33 117.420  10
   4   5  -1 1059.95 130.725  28
  -4  -5   1 1346.43 134.270  25
   4   5  -1 1059.66 108.244  11
   4   5   0 668.872 92.3603  10
   4   5   0 598.364 103.652  28
  -4  -5   0 584.672 97.9133  25
   4   5   0 722.423 97.6652  11
   4   5   1 83.2128 53.2832  11
   4   5   1 1.68310 55.4823  28
  -4  -5  -1-53.8518 65.2808  25
   4   5   2 145.158 51.1881  11
   4   5   2 73.5498 49.9336  28
   4   5   3 54.0415 35.1632  11
   4   5   3 32.7370 34.8880  28
  -4  -5  -3 0.32464 41.7655  25
   4   6 -12 364.345 44.5932  36
   4   6 -12 355.164 47.2694  30
   4   6 -11 124.292 40.5015  20
   4   6 -11 100.548 47.2310  36
   4   6 -10-86.4775 76.2995  36
   4   6 -10 10.2955 45.8732  20
   4   6  -9 208.396 67.4840  20
   4   6  -9 131.820 51.1387  31
   4   6  -8 567.525 100.624  20
   4   6  -8 561.444 93.8027  31
   4   6  -7 3026.54 172.498  23
   4   6  -6 1119.12 117.262  23
   4   6  -6 926.188 117.947  10
   4   6  -5 165.087 66.5723  23
   4   6  -5 95.0358 54.3296  10
   4   6  -4 345.002 81.4106  23
   4   6  -4 399.639 82.5057  10
   4   6  -3 425.033 90.9032  23
   4   6  -3 492.711 87.2696  10
   4   6  -2 319.642 78.4023  28
   4   6  -2 419.223 77.2688  10
  -4  -6   2 398.316 75.7753  25
   4   6  -1 1386.11 136.915  28
  -4  -6   1 1567.87 132.089  25
   4   6   0 1828.57 137.302  23
   4   6   0 1915.81 148.906  28
  -4  -6   0 1804.71 136.361  25
   4   6   1 76.9159 42.4954  23
   4   6   1 75.0581 47.2630  28
  -4  -6  -1 70.5759 46.8220  25
   4   6   2 149.029 39.9297  28
  -4  -6  -2 144.246 40.6898  25
   4   7 -11-31.2512 34.8636  20
   4   7 -11 43.5642 39.1237  36
   4   7 -11-47.1825 33.5669  30
   4   7 -10 625.231 78.5055  20
   4   7 -10 549.070 76.9787  36
   4   7 -10 609.143 66.4378  31
   4   7  -9 40.8618 47.0530  36
   4   7  -9 126.941 59.1066  20
   4   7  -9 86.1826 48.0033  31
   4   7  -8 418.718 83.0356  20
   4   7  -8 358.228 79.7050  31
   4   7  -7 1815.12 148.580  20
   4   7  -7 2043.40 160.830  31
   4   7  -7 2171.09 144.310  23
   4   7  -6 141.636 58.3400  23
   4   7  -6-43.3310 46.7553  20
   4   7  -5 989.941 115.371  23
   4   7  -5 999.328 111.192  10
   4   7  -5 775.722 94.8408  20
   4   7  -4 462.505 90.9276  23
   4   7  -4 464.896 76.8309  10
   4   7  -3 525.489 92.4108  23
   4   7  -3 542.864 77.2822  31
   4   7  -2 288.032 68.3585  23
   4   7  -1 952.541 96.7058  23
  -4  -7   1 916.075 85.6830  25
   4   7   0 1616.56 99.9446  23
  -4  -7   0 1695.48 102.533  25
  -4  -7  -1 104.274 30.5632  25
   4   8 -10 262.539 47.1546  20
   4   8 -10 250.566 41.6164  36
   4   8 -10 229.703 38.2354  31
   4   8  -9 0.53318 38.8941  20
   4   8  -9 6.96149 29.3456  36
   4   8  -9 18.3449 36.4876  31
   4   8  -8 335.796 65.1518  20
   4   8  -8 258.593 60.6108  31
   4   8  -7 658.953 80.0732  20
   4   8  -7 669.714 92.2941  31
   4   8  -7 659.079 76.8308  23
   4   8  -6 198.357 59.9560  23
   4   8  -6 194.129 65.7124  31
   4   8  -6 162.029 48.8451  20
   4   8  -5 742.534 91.3951  23
   4   8  -5 561.242 83.6055  31
   4   8  -4 62.3477 54.7497  23
   4   8  -4-9.78834 34.6735  22
   4   8  -4-14.4278 41.0712  31
   4   8  -3 204.671 56.6499  23
   4   8  -3 40.0956 36.6345  22
   4   8  -2 498.601 65.0059  23
   4   8  -1 2828.51 107.441  23
   4   8  -1 2786.72 104.226  22
   4   9  -9 19.8534 20.9133  20
   4   9  -9-10.2185 23.2048  31
   4   9  -8 93.9708 28.4319  20
   4   9  -8 74.4018 32.3748  31
   4   9  -7 181.905 43.8052  31
   4   9  -6 3959.07 147.455  31
   4   9  -6 4023.17 147.568  23
   4   9  -5 142.900 42.2687  23
   4   9  -5 125.822 34.3176  31
   4   9  -4 14.8058 30.7689  23
   4   9  -3 17.9409 23.0351  23
  -5  12  -1 155.408 27.0706  19
  -5  12  -2 22.4343 20.4140  19
  -5  11   2 386.180 46.2701  21
  -5  11   1-16.4561 31.7493  21
  -5  11   1 41.1327 27.9681  19
  -5  11   1 35.0856 34.6896  37
  -5  11   0 861.096 73.8192  21
  -5  11   0 968.287 83.6025  37
  -5  11   0 938.903 79.3280  19
  -5  11  -1 1769.23 98.5053  21
  -5  11  -1 1690.02 105.375  37
  -5  11  -1 1668.06 109.359  19
  -5  11  -2 91.3719 32.2793  21
  -5  11  -2 80.1130 36.7912  19
  -5  11  -2 4.75227 55.0103  29
  -5  11  -3-6.46611 28.2691  19
  -5  11  -3 3.62575 49.2601  29
  -5  11  -3-29.6647 36.3227  14
  -5  11  -4 313.882 38.5929  19
  -5  11  -4 289.952 47.7087  14
  -5  11  -5 364.789 45.4124  14
  -5  10   4 68.8133 26.6927  12
  -5  10   3 373.415 56.4906  37
  -5  10   3 343.478 50.2685  12
  -5  10   2 251.495 57.9876  37
  -5  10   2 242.755 50.9845  19
  -5  10   2 349.036 53.2293  12
  -5  10   1 1075.38 104.519  37
  -5  10   1 1160.43 105.343  19
  -5  10   0 1921.11 136.873  37
  -5  10   0 1862.31 136.541  19
  -5  10  -1 3811.33 170.301  21
  -5  10  -1 3910.45 186.072  37
  -5  10  -1 4093.80 198.496  19
  -5  10  -1 3861.86 196.348  14
  -5  10  -2 23.7866 37.5251  21
  -5  10  -2 27.6508 43.9756  19
  -5  10  -2-16.9565 40.5926  37
  -5  10  -2 65.4363 50.5036  14
  -5  10  -3 4899.35 214.953  14
  -5  10  -3 5442.76 206.174  19
  -5  10  -4 122.657 37.1555  19
  -5  10  -4 82.8728 48.7941  14
  -5  10  -4 186.018 50.3723  27
  -5  10  -5 2088.32 124.282  14
  -5  10  -5 2320.49 126.892  27
  -5  10  -6 101.036 33.5015  14
  -5  10  -6 96.3222 33.9989  27
  -5   9   6 9.56085 52.4473  35
  -5   9   6 613.856 48.4665  12
  -5   9   5 15.4572 76.9515  35
  -5   9   4 53.2158 38.7398  37
  -5   9   4 22.5628 100.985  35
  -5   9   3 122.051 51.5836  37
  -5   9   3 44.5951 113.834  35
  -5   9   3 179.454 50.3656  19
  -5   9   2 1797.81 141.130  37
  -5   9   2 1814.02 135.077  19
  -5   9   1 149.696 59.9136  37
  -5   9   1 49.1309 121.737  35
  -5   9   1 198.370 63.4896  14
  -5   9   0 624.296 91.3393  37
  -5   9   0 612.104 88.9109  14
  -5   9  -1 7629.69 275.975  37
  -5   9  -1 7449.48 289.089  14
  -5   9  -2 8001.61 263.722  37
  -5   9  -2 8203.61 304.197  14
  -5   9  -2 8160.12 276.821  27
  -5   9  -3 247.247 62.8846  20
  -5   9  -3 317.117 64.6216  19
  -5   9  -3 282.883 74.3854  14
  -5   9  -3 263.050 71.8561  27
  -5   9  -4 443.321 83.2131  20
  -5   9  -4 363.220 58.2468  19
  -5   9  -4 446.606 76.6328  33
  -5   9  -4 383.202 77.0156  27
  -5   9  -5 60.0196 42.4934  27
  -5   9  -6 651.767 80.9169  27
  -5   9  -7 166.352 35.3818  14
  -5   9  -7 102.518 35.4050  27
  -5   9  -7 91.7393 32.2723  33
  -5   8   7-11.7999 59.4275  35
  -5   8   6 177.871 43.5479  11
  -5   8   5 1094.16 96.5276  11
  -5   8   5 858.424 82.9061  37
  -5   8   4 5330.00 223.504  37
  -5   8   3 19566.3 455.987  37
  -5   8   3 286.228 182.277  35
  -5   8   2 17300.2 446.940  37
  -5   8   2 19912.7 454.817  14
  -5   8   1 7179.22 289.094  37
  -5   8   1 7388.63 285.959  14
  -5   8   0 89.5187 54.1708  37
  -5   8   0-8.62062 124.249  35
  -5   8   0-12.8894 51.3812  14
  -5   8  -1 4223.48 217.468  20
  -5   8  -1 4103.63 207.450  37
  -5   8  -1 3915.64 219.122  14
  -5   8  -1 4522.12 217.760  27
  -5   8  -2 1716.47 148.263  20
  -5   8  -2 1665.91 127.177  37
  -5   8  -2 1830.11 149.173  27
  -5   8  -3 387.069 85.9415  20
  -5   8  -3 372.751 82.3892  27
  -5   8  -4 326.658 78.1218  20
  -5   8  -4 315.699 77.5073  27
  -5   8  -5 400.637 80.3180  20
  -5   8  -5 346.582 80.3315  27
  -5   8  -6 28.4485 44.8221  27
  -5   8  -7 1804.37 112.752  27
  -5   8  -8 259.331 37.7199  33
  -5   7   8 104.232 32.6878  11
  -5   7   7 231.382 55.3514  11
  -5   7   6 9.84515 48.3954  11
  -5   7   5 146.235 59.7021  11
  -5   7   5 211.960 54.2899  37
  -5   7   4 58046.3 792.156  11
  -5   7   4 57322.6 771.525  37
  -5   7   3 31952.8 598.444  37
  -5   7   2 5812.47 259.722  37
  -5   7   2 5820.62 243.185  14
  -5   7   2 5713.27 298.515   8
  -5   7   1-22.9327 48.4891  37
  -5   7   1 89.1350 55.0923   8
  -5   7   0 4685.13 224.071  37
  -5   7   0 5024.89 291.614   8
  -5   7  -1 314.945 72.0695  20
  -5   7  -1 250.623 58.1760  37
  -5   7  -1 394.325 83.6087   8
  -5   7  -1 382.149 75.6412  27
  -5   7  -2 2024.91 161.269  20
  -5   7  -2 2067.42 186.746   8
  -5   7  -2 1904.78 158.860  27
  -5   7  -3 20723.2 505.876  20
  -5   7  -3 20664.7 503.274  27
  -5   7  -4 62.9730 72.6526  20
  -5   7  -4 84.7071 72.2013  34
  -5   7  -4 23.6761 64.9234  27
  -5   7  -5 1552.58 138.772  34
  -5   7  -5 1560.85 145.740  27
  -5   7  -6 2926.44 170.011  34
  -5   7  -6 2756.77 168.879  27
  -5   7  -7 446.228 64.5322  27
  -5   7  -8 90.4510 33.1504  33
  -5   6   9-6.94797 24.3866  11
  -5   6   8 1349.86 110.041  11
  -5   6   8 1153.58 93.0272  32
  -5   6   7 1580.30 137.208  11
  -5   6   7 1669.84 128.238  32
  -5   6   6 1150.97 126.433  11
  -5   6   5 10545.9 325.020  37
  -5   6   4 25247.1 520.512  37
   5  -6  -3 9292.05 390.300   2
  -5   6   3 9543.69 360.374   8
  -5   6   3 9260.89 317.667  37
  -5   6   3 9616.15 381.372   4
  -5   6   2 3412.30 192.672  37
   5  -6  -2 3383.54 229.607   2
  -5   6   2 3159.10 214.829   8
   5  -6  -1 2278.32 179.000   2
  -5   6   1 2160.02 181.050   8
   5  -6   0 2473.14 185.509   2
  -5   6   0 2582.27 201.086   8
  -5   6  -1 12575.5 368.288  20
  -5   6  -1 13403.6 374.991  13
  -5   6  -1 13040.9 450.101   8
  -5   6  -1 13049.7 374.763  27
  -5   6  -2 886.167 110.522  20
  -5   6  -2 767.227 99.6612  34
  -5   6  -2 633.822 106.719   8
  -5   6  -2 774.427 103.968  27
  -5   6  -3 4151.47 227.800  20
  -5   6  -3 4209.72 233.403  18
  -5   6  -3 4121.70 223.427  34
  -5   6  -3 4168.67 257.856   8
  -5   6  -3 4037.79 231.575  27
  -5   6  -4 77598.2 942.892  20
  -5   6  -4 75753.3 962.662  18
  -5   6  -4 78116.0 954.724  34
  -5   6  -4 78976.0 982.902  27
  -5   6  -5 365.662 78.8392  18
  -5   6  -5 376.703 79.3249  34
  -5   6  -5 248.831 74.2151  27
  -5   6  -6 84.8906 50.4784  18
  -5   6  -6 123.278 48.7646  34
   5  -6   6 105.013 43.6235  16
  -5   6  -6 101.077 49.9570  27
  -5   6  -7 483.634 64.9649  34
   5  -6   7 473.056 59.1549  16
  -5   6  -7 537.193 66.0000  27
  -5   6  -8 8.23075 23.1388  33
  -5   5  10-5.78660 19.5526  11
  -5   5   9 5930.24 211.118  11
  -5   5   9 5880.55 204.410  32
  -5   5   8 106.673 60.3476  11
  -5   5   8 39.6366 50.3092  32
   5  -5  -8 88.1061 41.6056   9
  -5   5   7 45.1609 63.2975  11
  -5   5   7 152.925 59.4340  32
  -5   5   6 1400.18 131.462  32
  -5   5   5 10694.0 429.169   4
  -5   5   5 9814.66 316.292  37
  -5   5   4 601.941 83.1228  37
  -5   5   4 606.468 107.791   4
   5  -5  -3 2818.48 208.849   2
  -5   5   3 2950.79 206.117   4
   5  -5  -2 41021.5 742.966   2
   5  -5  -1 33608.9 653.857   2
   5  -5   0 5762.58 268.424   2
   5  -5   1 15242.2 431.616   2
  -5   5  -2 13136.9 376.095  20
  -5   5  -2 12815.8 377.767  27
   5  -5   2 12893.4 406.137   2
  -5   5  -3 17530.2 442.356  20
  -5   5  -3 17007.8 434.963  18
  -5   5  -3 17404.7 430.325  34
  -5   5  -3 16737.7 444.771  27
  -5   5  -4 6687.92 279.069  18
  -5   5  -4 6544.20 271.131  34
  -5   5  -4 6751.35 287.373  27
  -5   5  -5 6652.51 269.807  18
  -5   5  -5 6557.62 266.045  34
   5  -5   5 6894.67 272.240  16
  -5   5  -5 6696.35 277.211  27
  -5   5  -6 77.8207 45.6523  18
  -5   5  -6 58.3745 47.0581  34
   5  -5   6 54.5368 44.2540  16
  -5   5  -6 109.941 46.7243  27
  -5   5  -7 67.0048 36.6280  34
   5  -5   7 89.6518 40.1785  16
   5  -5   8 779.415 57.6956  16
  -5   4  10 1285.88 92.5091  11
   5  -4 -10 1295.69 77.9307   9
  -5   4  10 1437.99 101.372  32
  -5   4   9 993.662 106.728  11
   5  -4  -9 914.962 90.7623   9
  -5   4   9 1007.49 108.003  32
  -5   4   8 2886.25 191.251  11
  -5   4   8 2957.49 190.351  32
  -5   4   7 45.0106 49.4744  32
  -5   4   6 95.6701 53.4106  32
  -5   4   5 2782.13 215.408   4
  -5   4   4 45.4804 45.8826   4
   5  -4  -3 6491.33 299.970   2
   5  -4  -2 46989.8 762.547   2
   5  -4  -1 34522.9 644.303   2
   5  -4   0 1782.21 152.096   2
   5  -4   1 5304.16 259.459   2
   5  -4   2 3038.01 203.586   2
   5  -4   3 34.7836 41.4168  16
  -5   4  -3-39.5334 45.2112  27
   5  -4   3 68.7920 57.1026   2
   5  -4   4 3242.00 198.012  16
  -5   4  -4 3257.35 195.815  27
   5  -4   5 6141.48 268.730  16
  -5   4  -5 5869.68 249.006  27
   5  -4   6 497.798 87.1717  16
  -5   4  -7 46.5025 35.3298  33
   5  -4   7-27.9398 36.1751  16
   5  -4   8 1309.03 74.0150  38
   5  -4   8 1129.02 67.2833  16
   5  -3 -11 296.729 37.2568   9
  -5   3  11 249.327 43.7805  32
  -5   3  10 5.82432 38.4450  11
  -5   3  10 39.7655 46.8971  32
   5  -3 -10-18.5170 34.0719   9
  -5   3   9-24.4298 50.7974  11
  -5   3   9 67.7933 59.0122  32
   5  -3  -9 26.4728 46.9565   9
  -5   3   8 1435.47 144.799  32
  -5   3   7 1348.11 136.693  32
   5  -3  -6 1775.33 136.039  17
  -5   3   6 1829.15 147.428  32
  -5   3   6 1902.78 182.389   4
  -5   3   5 2540.76 194.255   4
   5  -3  -4-26.8680 47.8274   2
   5  -3  -3 29989.7 600.516   2
   5  -3  -2 39192.8 674.472   2
   5  -3  -1 40075.5 673.666   2
   5  -3   0 3981.00 218.193   2
   5  -3   1 1019.32 112.732   2
   5  -3   2 959.798 125.885   2
   5  -3   3 6040.21 307.239   2
   5  -3   3 5834.11 261.753  16
  -5   3  -3 5496.55 244.765  27
   5  -3   4 623.189 98.5484  16
  -5   3  -4 524.813 84.2918  27
   5  -3   5 10251.1 350.204  16
   5  -3   6 162.949 62.3141  16
  -5   3  -6 196.116 53.4764  33
   5  -3   7 618.751 72.6701  16
  -5   2  11 529.551 54.2943  11
   5  -2 -11 646.021 71.3218   9
  -5   2  11 730.120 78.1870  32
  -5   2  10 10.4513 38.2391  11
  -5   2  10-24.8509 61.4303  32
   5  -2 -10-37.0228 55.9714   9
  -5   2   9 968.948 115.732  11
  -5   2   9 1059.32 123.565  32
  -5   2   8-57.6142 64.2229  32
  -5   2   7 14918.0 427.600  32
  -5   2   7 13769.4 469.136   4
  -5   2   6 18229.6 509.862   4
   5  -2  -5 2399.81 180.199   2
  -5   2   4 385.679 75.1715   6
   5  -2  -4 419.845 88.5393   2
  -5   2   3 7231.53 261.393   6
   5  -2  -3 7379.91 289.468   2
  -5   2   2 384.350 59.7181   6
   5  -2  -2 225.288 64.3618   2
  -5   2   1 532.652 64.4186   6
   5  -2  -1 644.652 94.5817   2
   5  -2   0 332.887 75.8277   2
   5  -2   1 5308.16 266.235   2
   5  -2   2 648.577 104.372   2
   5  -2   3 1693.81 172.142   2
   5  -2   3 1823.21 155.608  16
  -5   2  -3 1485.50 131.723  25
   5  -2   3 1557.52 128.929  11
   5  -2   4 805.734 112.656  16
   5  -2   4 745.760 98.7145  28
   5  -2   5 113.304 69.4938  16
   5  -2   5 31.5774 42.9958  28
   5  -2   6 467.517 81.2348  16
   5  -2   6 360.882 63.4618  28
   5  -2   7 243.098 47.6346  16
   5  -2   7 295.695 46.6994  38
   5  -2   7 229.387 38.4391  28
  -5   1  12 104.551 31.2279  32
   5  -1 -12 154.139 33.7957   9
  -5   1  11 5323.65 213.038  32
   5  -1 -11 5392.82 211.142   9
  -5   1  10 592.735 79.1835  11
  -5   1  10 732.521 107.404  32
   5  -1 -10 725.702 104.289   9
  -5   1   9 1222.32 136.504  32
  -5   1   8 9729.25 356.490  32
  -5   1   7 10929.8 361.112  32
   5  -1  -6 490.505 91.1094   2
  -5   1   5 1006.42 119.210   6
   5  -1  -5 822.241 111.319   2
  -5   1   4 775.494 96.2343   6
   5  -1  -4 840.244 101.607   2
  -5   1   3 696.325 85.0765   6
   5  -1  -3 2150.82 157.193   2
   5  -1  -2 2243.80 159.211   2
   5  -1  -1 205.501 60.2981   2
   5  -1   0 44147.2 740.077   2
   5  -1   1 593.353 104.032   2
   5  -1   2 41.4004 39.8086  11
   5  -1   2 103.733 55.4515  16
   5  -1   2 10.5550 36.3171  28
  -5   1  -2 15.4210 37.2880  33
   5  -1   2 29.2282 53.6755   2
  -5   1  -2 95.1307 58.0471  25
   5  -1   3 1292.21 134.822  16
   5  -1   3 1279.50 128.694  28
  -5   1  -3 909.531 112.164  25
   5  -1   3 1321.88 125.710  11
   5  -1   4 281.640 76.6637  16
   5  -1   4 308.969 77.2448  28
  -5   1  -4 214.822 70.0494  25
   5  -1   5 566.456 97.6118  16
   5  -1   5 733.273 97.2134  28
   5  -1   6 6.47534 33.0113  38
   5  -1   6-20.1477 38.9927  16
   5  -1   6 25.0178 34.7871  28
   5   0 -12 9315.48 225.831   9
  -5   0  12 8673.81 209.298  32
   5   0 -11 1614.99 129.963   9
  -5   0  11 1580.16 128.684  32
  -5   0  10 1912.58 159.218  32
   5   0 -10 2124.94 164.308   9
  -5   0   9-22.6640 56.8324  32
  -5   0   8 203.716 70.0986  32
   5   0  -7 438.981 76.3487   2
  -5   0   7 213.514 69.4371  32
  -5   0   6 291.731 82.7264   6
   5   0  -6 396.047 71.9362   2
  -5   0   5 9469.81 339.016   6
   5   0  -5 8985.07 316.157   2
   5   0  -4 13835.5 384.733   2
   5   0  -3 13028.0 367.873   2
   5   0  -2 2122.50 152.829   2
   5   0  -1 4436.91 231.623   2
   5   0   0 648.775 95.8063   2
   5   0   1 8497.41 358.550   2
   5   0   1 8169.74 309.770  16
  -5   0  -1 8734.54 308.541  25
   5   0   1 8509.97 302.744  11
   5   0   2 5496.76 307.093   2
   5   0   2 4961.90 253.349  16
   5   0   2 5522.89 257.102  28
  -5   0  -2 4921.13 241.961  25
   5   0   2 5344.12 248.549  11
   5   0   3 5420.22 270.486  16
   5   0   3 5631.35 263.599  28
  -5   0  -3 5155.59 246.712  25
   5   0   3 5785.68 260.033  11
   5   0   4 2203.14 170.747  16
   5   0   4 2194.34 163.189  28
  -5   0  -4 2130.07 151.734  25
   5   0   4 2165.49 153.538  11
   5   0   5 3239.72 180.958  16
   5   0   5 2968.04 166.572  28
   5   0   5 3242.04 164.247  38
  -5   0  -5 3222.50 149.165  25
   5   0   6 840.967 76.1062  16
   5   0   6 696.910 67.4143  28
   5   1 -12 1080.77 85.6398   9
  -5  -1  12 1038.07 80.0168  32
   5   1 -11 2901.69 168.294   9
  -5  -1  11 2635.51 162.230  32
   5   1 -10 1788.80 149.927   9
  -5  -1  10 1919.91 158.726  32
  -5  -1   9 320.115 86.3001  32
  -5  -1   8 241.047 69.8613  32
  -5  -1   7 1816.64 166.968   6
  -5  -1   7 2086.04 161.378  32
   5   1  -7 1813.59 168.247   3
  -5  -1   6 1005.24 122.519   6
   5   1  -5 37597.1 608.403   2
   5   1  -4 10526.9 323.015   2
   5   1  -3 23121.7 488.013   2
   5   1  -3 23411.4 454.642   3
   5   1  -2 221.162 59.1763   2
  -5  -1   2 361.967 76.1497   7
   5   1  -1 10204.4 355.515   2
  -5  -1   1 9862.63 348.377   7
   5   1   0 7237.13 319.755   2
   5   1   0 7507.25 295.214  16
  -5  -1   0 7460.17 286.008  25
   5   1   0 7357.98 283.800  11
   5   1   1 1905.08 177.004   2
   5   1   1 1894.65 156.496  38
   5   1   1 1736.63 153.020  16
   5   1   1 2023.94 161.125  28
  -5  -1  -1 1981.61 159.416  25
   5   1   1 2023.17 157.609  11
   5   1   2 25.4262 55.6406  11
   5   1   2 131.179 66.7888  38
   5   1   2 128.526 65.7148  16
   5   1   2 8.94287 53.7314  28
  -5  -1  -2 134.157 68.5614  25
   5   1   3 4147.71 234.667  16
   5   1   3 4195.43 231.236  28
   5   1   3 4108.05 214.420  38
  -5  -1  -3 4292.61 224.640  25
   5   1   3 4656.84 234.329  11
   5   1   4 425.701 77.3049  11
   5   1   4 390.859 65.2843  38
   5   1   4 414.982 81.2825  16
   5   1   4 323.217 75.3714  28
  -5  -1  -4 298.591 68.1199  25
   5   1   5 523.353 70.8471  28
  -5  -1  -5 495.511 56.8345  25
  -5  -2  12 13.5079 29.8120  32
   5   2 -12-10.1026 33.3911   9
  -5  -2  11-31.6399 49.4439  32
   5   2 -11 36.3004 42.3021   9
  -5  -2  10 102.789 55.2297  32
   5   2 -10 167.176 61.4300   9
  -5  -2   9 171.012 67.4173  32
  -5  -2   8 1372.85 138.552  32
  -5  -2   7 271.861 70.6968   6
  -5  -2   7 218.452 64.1621  32
   5   2  -7 76.3530 56.5269  10
   5   2  -6 1462.97 155.654   3
   5   2  -5 16223.9 457.343   3
   5   2  -4 246.410 60.6999   3
   5   2  -3 693.179 93.2397   2
  -5  -2   3 620.468 106.623   7
   5   2  -2 106.857 49.5049   2
  -5  -2   2 140.902 54.9038   7
   5   2  -1 362.324 73.4036  11
   5   2  -1 445.327 84.6028  38
   5   2  -1 471.179 83.7381  28
   5   2  -1 435.823 82.5879   2
  -5  -2   1 360.523 75.8485  25
  -5  -2   1 456.014 86.5599   7
   5   2   0 3881.30 245.040   2
   5   2   0 3940.28 216.731  38
   5   2   0 3866.33 223.726  28
  -5  -2   0 3999.01 220.266  25
   5   2   0 3774.47 212.220  11
   5   2   1 1076.89 122.735  38
   5   2   1 1169.43 135.435  16
   5   2   1 1077.30 130.037  28
  -5  -2  -1 1151.16 134.001  25
   5   2   1 844.671 112.823  11
   5   2   2 82716.0 910.362  38
   5   2   2 83714.2 1014.57  16
   5   2   2 85731.3 1035.42  28
  -5  -2  -2 84263.3 987.894  25
   5   2   2 84258.4 988.591  11
   5   2   3 2566.23 177.008  28
  -5  -2  -3 2404.74 163.274  25
   5   2   3 2695.66 173.687  11
   5   2   4 10.6120 38.8221  11
   5   2   4 41.3490 47.6148  28
  -5  -2  -4 2.11815 40.5856  25
   5   2   5 906.529 71.2347  28
   5   3 -12 63.9437 26.8588  36
   5   3 -12 95.4268 33.4146   9
  -5  -3  11 380.762 66.6944  32
   5   3 -11 323.956 59.2329   9
  -5  -3  10 313.940 73.8354  32
   5   3 -10 247.284 64.2578   9
   5   3 -10 209.206 56.5337  20
  -5  -3   9 546.870 94.5349  32
  -5  -3   8 4435.20 236.859  32
   5   3  -7 3250.30 235.770   3
  -5  -3   7 3270.27 233.503   6
   5   3  -7 3510.83 214.431  10
  -5  -3   7 3377.83 208.075  32
   5   3  -6 3782.34 242.250   3
   5   3  -6 3708.54 216.406  10
   5   3  -6 3576.95 210.336  15
   5   3  -5 10001.7 367.536   3
   5   3  -5 10517.0 353.339  10
   5   3  -5 10774.2 350.278  15
   5   3  -4 7207.99 293.680  10
   5   3  -4 7547.39 290.445  15
  -5  -3   4 7400.58 350.677   7
   5   3  -3 7237.91 295.241  10
   5   3  -3 7259.71 298.280  28
  -5  -3   3 7386.45 354.695   7
   5   3  -2 27.3039 54.2086  28
  -5  -3   2 94.8276 47.4294  25
   5   3  -1 35.7520 46.4560  11
   5   3  -1-7.12236 40.5315  38
   5   3  -1 75.9695 59.9968  28
  -5  -3   1 14.1849 52.5767  25
  -5  -3   1 26.0622 29.8538   7
   5   3   0 14962.7 449.045  28
  -5  -3   0 16109.5 442.349  25
   5   3   0 15380.3 423.717  11
   5   3   1 38196.8 709.749  28
  -5  -3  -1 38931.4 682.577  25
   5   3   1 37754.0 658.093  11
   5   3   2 9230.22 334.774  28
  -5  -3  -2 9163.12 314.987  25
   5   3   2 9658.19 318.162  11
   5   3   3 6567.74 246.633  28
  -5  -3  -3 6667.12 235.117  25
   5   3   3 6718.72 235.889  11
   5   3   4 146.463 41.0058  28
  -5  -3  -4 163.074 37.5156  25
   5   4 -12-66.8105 31.3860  36
  -5  -4  11 48.6565 35.9469  32
   5   4 -11-20.8901 33.6142  20
   5   4 -10 2015.51 142.950  20
  -5  -4  10 1764.47 133.577  32
  -5  -4   9 201.123 58.7106  32
  -5  -4   8 1160.42 124.295  32
  -5  -4   7 302.505 73.3254  32
   5   4  -7 238.883 76.4004  10
   5   4  -6 865.215 113.396  10
   5   4  -6 982.058 117.970  15
   5   4  -5 132.341 60.7247  10
   5   4  -5 98.6302 51.1625  15
   5   4  -4 189.157 66.3418  10
   5   4  -4 318.181 71.9603  15
  -5  -4   4 340.043 103.820   7
   5   4  -3 25580.5 571.851  10
   5   4  -3 26225.0 530.691  15
   5   4  -3 26027.9 589.648  28
   5   4  -2 1633.67 150.784  10
   5   4  -2 1635.92 158.016  28
  -5  -4   2 1694.13 146.295  25
   5   4  -1 1223.05 136.453  28
  -5  -4   1 1345.71 135.761  25
   5   4   0 4697.03 251.957  28
  -5  -4   0 5030.31 243.969  25
   5   4   0 4501.90 222.032  11
   5   4   1 1020.28 120.954  28
  -5  -4  -1 1276.48 127.591  25
   5   4   1 1191.48 113.580  11
   5   4   2 2049.20 118.985  10
   5   4   2 2156.25 146.106  28
  -5  -4  -2 1949.17 133.758  25
   5   4   3 83.6319 37.4931  28
  -5  -4  -3 61.1571 33.5897  25
   5   5 -12-17.1302 24.2529  36
   5   5 -11 143.357 40.6443  20
   5   5 -11 141.794 49.3011  36
   5   5 -10 351.427 71.2739  20
  -5  -5   9 457.050 75.3434  32
   5   5  -9 343.259 65.9811  31
  -5  -5   8 665.037 92.2409  32
   5   5  -7 1239.79 136.691  10
  -5  -5   7 1257.61 126.463  32
   5   5  -6 127.821 52.5566  23
   5   5  -6 132.228 67.0876  10
   5   5  -5 7700.91 292.892  23
   5   5  -5 7745.07 320.444  10
   5   5  -4 10904.8 372.382  10
   5   5  -3 1853.11 155.897  10
   5   5  -3 1777.54 166.149  28
   5   5  -2 454.761 79.0269  10
   5   5  -2 478.677 95.6793  28
  -5  -5   2 486.638 80.6153  25
   5   5  -1 501.802 82.1412  10
   5   5  -1 509.404 95.3872  28
  -5  -5   1 536.636 86.7819  25
   5   5   0 38.2597 38.6400  10
   5   5   0 44.4843 55.0506  28
  -5  -5   0 27.6519 48.7506  25
   5   5   1-22.5471 44.1787  28
  -5  -5  -1 67.0035 48.1057  25
   5   5   2 440.894 55.1684  28
  -5  -5  -2 375.886 50.3936  25
   5   6 -11-5.29019 28.0001  20
   5   6 -11-13.6224 42.0716  36
   5   6 -10 58.2202 35.3206  31
   5   6 -10 54.4996 44.7807  20
   5   6  -9 801.679 103.311  20
   5   6  -9 683.986 85.2701  31
   5   6  -8 2750.69 181.016  20
  -5  -6   8 2400.16 147.499  32
   5   6  -7 58.9705 41.4836  23
  -5  -6   7 21.5396 40.6737  32
   5   6  -6 19.4735 45.8019  23
   5   6  -6 81.0953 58.1616  10
   5   6  -5 1572.76 135.699  23
   5   6  -5 1620.46 142.024  10
   5   6  -4 556.857 89.8753  23
   5   6  -4 595.496 91.7463  10
   5   6  -3 1442.67 133.831  23
   5   6  -3 1219.71 115.079  10
   5   6  -2 264.351 69.3710  23
   5   6  -2 315.900 64.1719  10
  -5  -6   2 308.946 59.5852  25
   5   6  -1 35.3101 44.9312  23
  -5  -6   1-22.5334 41.5246  25
   5   6   0 708.385 69.9243  23
  -5  -6   0 647.990 65.7613  25
  -5  -6  -1 59.5615 25.1666  25
   5   7 -11-20.1745 22.1246  20
   5   7 -11 8.89569 21.4802  36
   5   7 -10 648.682 68.4874  20
   5   7 -10 692.605 68.2021  36
   5   7 -10 543.941 54.4099  31
   5   7  -9 2819.58 149.042  20
   5   7  -9 2723.73 133.368  36
   5   7  -9 2655.50 141.590  31
   5   7  -8 4.84998 35.0035  36
   5   7  -8 76.1057 48.9026  31
   5   7  -8 60.6563 47.3641  20
   5   7  -7 482.702 66.8038  23
   5   7  -7 402.729 70.3252  20
   5   7  -7 470.357 82.3770  31
   5   7  -6 179.097 52.1855  23
   5   7  -6 228.407 53.7906  20
   5   7  -6 184.073 59.4228  31
   5   7  -5 10.0298 46.5024  23
   5   7  -5-16.3409 49.8724  31
   5   7  -4 43.4664 46.4483  23
   5   7  -4 31.6029 38.7096  10
   5   7  -4 29.3743 38.9649  31
   5   7  -3 42.4745 40.5085  23
   5   7  -2 24.1959 35.0876  23
   5   7  -1 895.691 65.7229  23
   5   8  -9 25.3764 25.8138  20
   5   8  -9-1.72216 24.5141  31
   5   8  -8 87.7271 32.7930  20
   5   8  -8 71.4354 37.8070  31
   5   8  -7 276.298 43.1363  23
   5   8  -7 213.871 38.3761  20
   5   8  -7 302.632 55.7495  31
   5   8  -6 2796.22 132.602  31
   5   8  -6 2813.18 124.405  23
   5   8  -5 102.184 39.6836  23
   5   8  -5 111.427 36.3850  31
   5   8  -4-41.8451 35.4388  23
   5   8  -3 151.493 34.9407  23
  -6  11   1-31.6654 22.7398  21
  -6  11   1 13.1817 27.7116  37
  -6  11   1-11.0861 24.4661  19
  -6  11   0 3219.85 125.280  37
  -6  11   0 3249.49 131.971  19
  -6  11  -1 123.052 31.7669  37
  -6  11  -1 130.065 37.8084  19
  -6  11  -2 446.247 51.8201  19
  -6  11  -3 166.627 28.8705  19
  -6  11  -3 188.581 39.5814  14
  -6  11  -4 16.1257 23.5798  14
  -6  10   4 229.627 34.4745  37
  -6  10   3 101.908 38.8890  37
  -6  10   3 114.039 32.2978  19
  -6  10   2 109.716 40.0362  19
  -6  10   2 105.768 45.4474  37
  -6  10   1 230.415 56.9877  19
  -6  10   1 248.793 57.4645  37
  -6  10   0 35.9839 40.1366  37
  -6  10   0 11.4321 44.4961  19
  -6  10   0 12.3399 37.9466  14
  -6  10  -1 3221.67 149.594  37
  -6  10  -1 2781.37 152.213  14
  -6  10  -1 3028.68 161.243  19
  -6  10  -2 113.333 45.2302  19
  -6  10  -2 77.6490 42.9604  14
  -6  10  -3 901.212 73.9944  19
  -6  10  -3 884.864 86.0213  14
  -6  10  -3 879.554 78.7199  27
  -6  10  -4 15.7801 33.1748  14
  -6  10  -4 22.2776 32.1696  27
  -6  10  -5 220.604 39.5087  14
  -6  10  -5 252.338 42.3503  27
  -6   9   6 19.2793 59.3250  35
  -6   9   5 14.3246 23.9129  37
  -6   9   5 25.9810 81.9291  35
  -6   9   4 410.445 61.9190  37
  -6   9   4 16.8141 96.1648  35
  -6   9   3 894.631 95.3071  37
  -6   9   3 930.562 88.3607  19
  -6   9   2 27.5958 112.746  35
  -6   9   2-147.412 68.7194  29
  -6   9   1 4254.95 207.159  37
  -6   9   1 4671.31 209.295  14
  -6   9   0 13.1671 39.3131  37
  -6   9   0-21.0437 40.9352  14
  -6   9  -1 528.849 76.4765  37
  -6   9  -1 612.714 90.2694  14
  -6   9  -2 336.482 72.7265  14
  -6   9  -2 201.488 61.5316  27
  -6   9  -3 715.423 82.0715  33
  -6   9  -3 673.363 90.2692  14
  -6   9  -3 710.578 88.7934  27
  -6   9  -3 711.825 76.8205  19
  -6   9  -4 82.1839 43.2074  33
  -6   9  -4 35.3632 40.3105  27
  -6   9  -5 2060.18 114.957  33
  -6   9  -5 2196.16 127.909  27
  -6   9  -6 489.603 50.8021  33
  -6   9  -6 506.338 51.6328  14
  -6   9  -6 531.423 56.1905  27
  -6   8   6 139.527 40.3807  11
  -6   8   5 3211.84 153.751  11
  -6   8   5 2962.78 149.372  37
  -6   8   4 1691.34 130.949  37
  -6   8   4 1.12379 116.224  35
  -6   8   3 1222.52 124.267  37
  -6   8   2 3670.02 187.297  14
  -6   8   2 3052.88 188.770  37
  -6   8   1 24.0628 44.6233  37
  -6   8   1 28.1028 38.3123  14
  -6   8   0 288.582 65.1202  37
  -6   8   0 268.019 71.0858  14
  -6   8  -1 3283.39 175.977  37
  -6   8  -1 3188.60 191.524  27
  -6   8  -2 20.0690 42.0251  33
  -6   8  -2-38.4607 53.1740  27
  -6   8  -3 92.5588 49.2817  33
  -6   8  -3 59.8125 51.3276  27
  -6   8  -4 541.813 82.5599  33
  -6   8  -4 494.893 83.4043  27
  -6   8  -5 67.2486 45.5830  33
  -6   8  -5 36.8421 44.4739  27
  -6   8  -6 38.7365 36.7070  33
  -6   8  -6-9.19072 32.6503  27
  -6   7   8-9.58041 25.8039  11
  -6   7   8 25.7623 68.4774  35
  -6   7   7 284.780 60.2810  11
  -6   7   6 1088.91 108.405  11
  -6   7   6 1003.41 88.2707  37
  -6   7   5 78.3623 49.8720  11
  -6   7   5 86.0880 57.5143  37
  -6   7   4 18433.4 448.225  37
  -6   7   3 103.149 59.2238  37
  -6   7   2 2090.88 160.912  37
  -6   7   2 2166.93 155.399  13
  -6   7   1 595.530 93.9424  37
  -6   7   1 658.496 88.1319  14
  -6   7   1 619.984 94.4087  13
  -6   7   1 755.767 101.854  27
  -6   7   0 62.0046 49.6893  37
  -6   7   0 69.6281 52.7874  33
  -6   7   0 9.93815 43.3210  27
  -6   7   0 44.0509 53.3963  26
  -6   7  -1 493.060 76.6770  37
  -6   7  -1 585.584 93.5676  33
  -6   7  -1 579.531 97.1988  27
  -6   7  -1 503.746 86.8596  26
  -6   7  -2 5208.32 256.896  27
  -6   7  -2 5191.88 255.566  33
  -6   7  -3 13488.2 403.483  27
  -6   7  -4-83.2542 65.8326  29
  -6   7  -4 382.817 82.8866  27
  -6   7  -5 446.776 77.4812  27
  -6   7  -6 1123.39 97.5103  33
  -6   7  -6 1009.76 87.1552  27
  -6   7  -7 1596.33 82.5798  33
  -6   6   9 677.277 60.2202  11
  -6   6   8 84.6166 48.1602  11
  -6   6   7 536.310 87.4927  11
  -6   6   6 1038.88 102.057  37
  -6   6   5 4376.91 220.516  37
  -6   6   4 4276.25 229.361  37
  -6   6   3 14808.9 413.706  37
  -6   6   3 14792.0 473.951   8
  -6   6   2 55.8985 43.9219  37
  -6   6   2-39.3954 49.2592   8
  -6   6   2 55.3271 38.2904  13
  -6   6   2 148.408 59.5331  27
  -6   6   2 155.109 71.7058  26
  -6   6   1 705.661 95.6266  37
  -6   6   1 587.086 86.8927  33
   6  -6  -1 976.469 129.530   2
  -6   6   1 656.924 94.0488  13
  -6   6   1 711.675 97.2279  27
  -6   6   1 660.498 100.605  26
  -6   6   0 282.556 64.0897  37
  -6   6   0 156.492 57.1396  33
   6  -6   0 287.910 89.6452   2
  -6   6   0 275.082 68.8257  13
  -6   6   0 360.193 83.3388  27
  -6   6   0 167.648 62.1040  26
  -6   6  -1 343.838 79.3554  33
  -6   6  -1 336.094 78.4085  13
  -6   6  -1 285.202 72.5775  27
  -6   6  -1 235.449 67.7896  26
  -6   6  -2 21726.8 526.191  27
  -6   6  -3 34313.1 651.791  27
  -6   6  -4-10.8098 52.4779  27
  -6   6  -5 196.291 59.7720  27
  -6   6  -6 336.686 62.0747  33
  -6   6  -6 334.563 53.5129  27
  -6   6  -7 936.200 63.3237  33
   6  -6   7 987.480 63.4718  38
  -6   5  10 76.8569 26.1172  11
  -6   5   9 2214.92 132.686  11
   6  -5  -9 1944.26 102.431   9
  -6   5   9 2229.26 121.867  32
  -6   5   8 55.0360 53.0543  11
  -6   5   8 112.622 49.8077  32
  -6   5   7 439.673 78.8780  32
  -6   5   6 3404.85 186.728  37
  -6   5   5-52.8779 61.2254  37
   6  -5  -4 276.092 81.2668   2
   6  -5  -4 315.848 66.0583  17
  -6   5   4 358.949 66.5657  13
  -6   5   3 8.87637 41.0132  27
  -6   5   3 13.9366 43.9097  26
  -6   5   2 1721.02 144.420  33
   6  -5  -2 1810.64 175.974   2
  -6   5   2 1696.00 139.714  27
  -6   5   2 2034.97 150.773  13
  -6   5   2 1889.37 157.766  26
  -6   5   1 3129.75 193.880  33
   6  -5  -1 3175.53 225.225   2
  -6   5   1 3185.51 186.897  13
  -6   5   1 2943.59 184.963  27
  -6   5   1 3018.70 192.235  26
  -6   5   0 9412.76 337.990  33
   6  -5   0 8499.84 361.728   2
  -6   5   0 9585.75 323.746  13
  -6   5   0 9332.27 331.883  27
  -6   5   0 9586.85 331.586  26
  -6   5  -1 9911.49 357.057  33
  -6   5  -1 9799.77 325.240  13
  -6   5  -1 10594.5 359.252  27
   6  -5   1 9370.79 378.438   2
  -6   5  -2 30581.0 560.214  13
  -6   5  -2 30790.0 617.849  27
  -6   5  -3 6287.36 281.425  27
   6  -5   4-36.0289 41.5005  16
  -6   5  -4 25.6548 52.2757  27
  -6   5  -5 14.2542 50.0376  33
   6  -5   5 43.5550 35.9413  16
  -6   5  -5 33.7621 42.0598  27
  -6   5  -6 18.3326 34.6724  33
   6  -5   6 1.89763 30.1040  16
   6  -5   7 1006.30 66.1685  38
  -6   4  10 461.581 62.2199  11
  -6   4  10 496.813 64.0917  32
   6  -4 -10 425.015 52.6120   9
  -6   4   9 59.2750 54.2537  11
  -6   4   9 54.2419 46.9455  32
   6  -4  -9 102.279 50.4820   9
  -6   4   8 605.507 93.9222  32
  -6   4   7 1153.45 124.903  32
  -6   4   6 70.2699 52.9939  32
   6  -4  -6 12.1659 38.6708  17
   6  -4  -5 928.828 133.346   2
   6  -4  -5 800.778 96.3043  17
   6  -4  -4 326.155 89.0947   2
  -6   4   4 246.571 75.4129  26
   6  -4  -3 36047.3 750.619   2
   6  -4  -2 100.666 62.7292   2
   6  -4  -1 47.6901 54.5841   2
  -6   4   0 246.022 66.0693  33
   6  -4   0 201.789 87.9301   2
  -6   4   0 153.197 53.1797  13
  -6   4   0 15.2757 54.1611  27
  -6   4  -1 6050.86 279.568  33
  -6   4  -1 6151.78 249.659  13
  -6   4  -1 6092.60 272.404  27
   6  -4   1 5899.51 307.505   2
  -6   4  -2 1170.71 107.894  13
  -6   4  -2 1491.79 139.937  27
   6  -4   3 9175.86 319.217  16
  -6   4  -3 8316.38 313.578  27
  -6   4  -4 8832.47 324.951  33
   6  -4   4 9125.74 311.272  16
  -6   4  -4 8832.53 300.173  27
  -6   4  -5 1197.10 112.559  33
   6  -4   5 1221.24 111.760  16
  -6   4  -6 253.512 44.5611  33
   6  -4   6 262.704 49.8167  16
  -6   3  11 80.0909 31.5879  32
   6  -3 -11 69.3773 27.7726   9
  -6   3  10 33.8241 39.0321  11
  -6   3  10-20.9570 45.5933  32
   6  -3 -10 11.0048 39.3257   9
  -6   3   9 437.322 82.1008  11
  -6   3   9 486.682 85.2057  32
  -6   3   8 341.752 81.4523  32
  -6   3   7 353.790 84.9551  32
   6  -3  -6 15.6125 47.2584  17
  -6   3   6 82.7115 53.3673  32
   6  -3  -5 301.411 86.9743   2
   6  -3  -5 261.971 60.7193  17
  -6   3   5 473.669 87.2688  32
  -6   3   5 439.794 82.9273  26
   6  -3  -4 1703.65 167.775   2
   6  -3  -3 13927.7 456.449   2
   6  -3  -2 16170.8 484.530   2
   6  -3  -1 128.455 69.7710   2
  -6   3   0 2900.54 189.378  33
  -6   3   0 2972.76 186.432  27
   6  -3   0 2985.26 216.930   2
  -6   3  -1 7161.02 299.052  33
   6  -3   1 6796.05 269.155  16
  -6   3  -1 6602.17 248.487  13
  -6   3  -1 6651.10 279.018  27
   6  -3   1 6712.93 332.107   2
  -6   3  -2 9.42322 50.4843  33
   6  -3   2 54.8729 52.1703  16
  -6   3  -2-94.6940 51.4680  27
  -6   3  -3 2209.66 170.185  33
   6  -3   3 2340.61 171.666  16
  -6   3  -3 2084.04 153.423  27
  -6   3  -4 2218.62 158.188  33
   6  -3   4 2139.76 161.177  16
  -6   3  -5 2560.77 142.014  33
   6  -3   5 2748.72 160.447  16
   6  -3   6 609.310 69.2234  38
   6  -3   6 734.823 73.2774  16
  -6   2  11-3.69605 25.0470  11
  -6   2  11-22.4941 39.1524  32
   6  -2 -11-17.4915 34.2329   9
  -6   2  10 393.117 69.3971  11
  -6   2  10 405.092 76.7246  32
   6  -2 -10 325.798 76.0670   9
  -6   2   9 67.8473 54.8598  32
  -6   2   8 5736.31 273.782  32
   6  -2  -7 6179.31 273.973  17
  -6   2   7 6075.53 278.655  32
   6  -2  -6 56.4998 45.3818  17
  -6   2   6 82.2564 56.3146  32
   6  -2  -5 8610.16 363.370   2
  -6   2   4 41.7218 44.1793   6
   6  -2  -4 153.707 62.2697   2
  -6   2   3 480.998 78.3223   6
   6  -2  -3 682.862 100.163   2
   6  -2  -2 477.761 87.3086   2
   6  -2  -1 815.744 120.807   2
   6  -2   0 621.460 92.4037  38
  -6   2   0 544.367 88.9662  33
   6  -2   0 595.595 106.581   2
  -6   2   0 522.011 86.6740  27
  -6   2   0 610.023 91.8721  25
  -6   2  -1 60.4016 50.9519  33
   6  -2   1 73.4151 44.8009  16
  -6   2  -1 74.9547 51.5221  27
   6  -2   1 221.121 89.1854   2
  -6   2  -1 50.5910 51.2837  25
  -6   2  -2 296.451 76.2885  33
   6  -2   2 287.323 72.6544  16
  -6   2  -2 173.952 59.1292  27
  -6   2  -2 317.963 74.9704  25
  -6   2  -3 3263.95 192.095  33
   6  -2   3 3017.11 194.976  16
  -6   2  -3 2974.82 181.028  25
   6  -2   4 13424.0 387.594  16
   6  -2   5 177.002 53.8370  38
   6  -2   5 194.648 54.9644  16
   6  -2   6 43.7634 29.9730  16
   6  -2   6 39.8157 26.8081  38
  -6   1  12-3.49802 25.2960  32
   6  -1 -12-1.67137 21.1257   9
   6  -1 -11 1507.26 114.400   9
  -6   1  11 1482.18 114.066  32
  -6   1  10-29.5217 41.6538  11
  -6   1  10 70.9482 59.6528  32
  -6   1   9 2888.80 198.945  32
  -6   1   8 1727.35 161.163  32
   6  -1  -7 1188.57 137.966   2
   6  -1  -7 1458.93 140.878  17
  -6   1   7 1393.72 140.075  32
  -6   1   6 1121.54 143.969   6
   6  -1  -6 1397.70 130.919  17
  -6   1   6 1451.50 139.903  32
   6  -1  -6 1211.84 148.493   2
   6  -1  -6 1456.70 129.612  15
  -6   1   5 8864.85 358.297   6
   6  -1  -5 8664.77 353.060   2
  -6   1   4 354.068 75.1374   6
   6  -1  -4 364.342 77.5323   2
  -6   1   3 8922.97 318.308   6
   6  -1  -3 9317.29 357.269   2
  -6   1   2 6557.97 263.347   6
   6  -1  -2 6172.47 298.040   2
   6  -1  -1 2825.59 213.147   2
   6  -1   0 27712.4 663.962   2
  -6   1   0 26223.2 548.687  33
   6  -1   0 26066.0 563.626  38
   6  -1   0 27507.4 561.935  16
  -6   1   0 25845.7 530.111  27
  -6   1   0 26006.5 546.804  25
   6  -1   1 726.592 110.486  38
  -6   1  -1 748.825 102.890  33
   6  -1   1 793.150 106.370  16
  -6   1  -1 796.357 108.245  25
   6  -1   2 3168.47 207.303  16
   6  -1   2 3498.30 197.190  28
  -6   1  -2 3090.27 192.848  25
   6  -1   3 97.0179 56.7260  38
   6  -1   3 34.0108 56.5507  16
   6  -1   3 41.1300 43.2540  28
  -6   1  -3 37.1242 48.0128  25
   6  -1   4 55.9226 49.4906  38
   6  -1   4 44.4817 53.3289  16
   6  -1   4-30.0918 40.1167  28
  -6   1  -4 2.82166 39.8677  25
   6  -1   5 61.8712 34.9586  38
   6  -1   5 71.4022 41.3885  16
   6  -1   5 67.2278 31.4012  28
  -6   0  12 54.6367 32.0870  32
   6   0 -12 76.7712 35.6176   9
  -6   0  11-42.3428 53.7903  32
   6   0 -11-7.16175 43.9711   9
  -6   0  10 46.6593 58.2611  32
  -6   0   9 2861.31 199.070  32
  -6   0   8 650.898 101.415  32
   6   0  -7 592.814 96.3187  17
  -6   0   7 423.841 89.3566  32
  -6   0   6 888.435 133.282   6
   6   0  -6 819.711 98.2602  10
   6   0  -6 855.307 105.979  17
   6   0  -6 927.475 117.751   2
  -6   0   6 889.228 113.190  32
   6   0  -6 793.423 101.830  15
  -6   0   5 11004.9 395.618   6
   6   0  -5 11155.4 383.945   2
  -6   0   4 8.01352 38.3711   6
   6   0  -4 70.8100 34.6156   2
   6   0  -3 176.041 65.5737   2
   6   0  -2 26132.7 548.626  38
   6   0  -2 26987.2 618.461   2
   6   0  -1 24610.5 544.965  38
  -6   0   1 24326.1 517.247  33
   6   0  -1 23861.3 505.206  28
  -6   0   1 23601.9 502.767  27
  -6   0   1 25016.2 535.038  25
   6   0  -1 25063.5 613.168   2
   6   0   0 597.669 102.514  38
   6   0   0 588.919 98.8360  16
   6   0   0 601.095 93.6827  28
  -6   0   0 520.843 95.3015  25
   6   0   1-41.5171 59.8895  38
   6   0   1 76.9021 61.6625  16
   6   0   1 3.78943 46.8726  28
  -6   0  -1-15.0801 59.6765  25
   6   0   2 19.2428 52.9233  16
   6   0   2-19.3366 47.8245  38
   6   0   2 6.88722 44.7133  28
  -6   0  -2 2.36729 55.1054  25
   6   0   3 85.3453 52.6418  38
   6   0   3 31.9245 53.9651  16
   6   0   3 56.5801 48.3157  28
  -6   0  -3 7.41036 44.7010  25
   6   0   4 178.082 46.5137  38
   6   0   4 100.148 47.4526  28
  -6   0  -4 179.989 46.9489  25
   6   0   5 160.638 30.7074  28
   6   1 -12 423.218 53.5379   9
  -6  -1  12 305.011 47.5129  32
  -6  -1  11 244.734 61.9319  32
   6   1 -11 339.941 64.4526   9
  -6  -1  10 125.245 64.6709  32
  -6  -1   9 692.904 108.292  32
  -6  -1   8 1314.08 142.101  32
   6   1  -7 3494.38 209.985  10
  -6  -1   7 3592.61 220.500  32
   6   1  -7 3541.87 215.148  15
  -6  -1   6 64964.9 1016.98   6
   6   1  -6 65652.9 869.314  10
   6   1  -6 64058.6 863.142  17
  -6  -1   6 67236.3 901.129  32
   6   1  -6 68644.6 903.333  15
   6   1  -6 69529.1 1025.63   3
  -6  -1   5 33836.2 720.529   6
   6   1  -5 32630.8 607.160  10
   6   1  -5 33876.9 593.012  17
   6   1  -5 33659.6 630.478  15
   6   1  -5 32891.5 666.374   3
   6   1  -4 12130.4 371.786  10
   6   1  -4 11711.9 384.597   2
   6   1  -3 338.169 81.5246   2
   6   1  -3 341.512 76.0024  38
   6   1  -2 1318.49 133.812  38
   6   1  -2 1361.39 143.218   2
  -6  -1   2 1523.15 138.556  25
   6   1  -1 3928.94 249.175   2
   6   1  -1 4299.03 237.479  38
   6   1  -1 4409.37 235.420  28
  -6  -1   1 4148.50 229.123  25
   6   1   0 2889.96 195.943  28
   6   1   0 2959.55 196.976  38
  -6  -1   0 2953.44 197.352  25
   6   1   1 728.829 104.170  38
   6   1   1 800.817 110.510  28
  -6  -1  -1 575.138 99.4290  25
   6   1   2 2251.57 164.040  28
   6   1   2 2347.14 162.154  38
  -6  -1  -2 2264.21 164.314  25
   6   1   3 146.568 48.5621  38
   6   1   3 156.567 56.3742  28
  -6  -1  -3 189.529 56.8064  25
   6   1   4 19.6014 34.4201  28
  -6  -1  -4 50.9123 27.6382  25
  -6  -2  12 227.191 42.8822  32
   6   2 -12 230.394 35.0832   9
  -6  -2  11 430.602 73.9976  32
   6   2 -11 464.535 62.8419   9
  -6  -2  10-18.8344 50.4033  32
   6   2 -10 23.5883 36.8541   9
  -6  -2   9 173.345 68.1798  32
  -6  -2   8 5156.80 261.296  32
   6   2  -7 58727.0 857.329  10
  -6  -2   7 59010.9 872.857  32
   6   2  -7 59890.7 878.616  15
  -6  -2   6 32176.6 738.769   6
   6   2  -6 31768.9 629.248  10
   6   2  -5 17187.4 486.892   3
   6   2  -5 17838.7 470.719  10
   6   2  -5 16881.3 458.515  15
   6   2  -4 5167.60 257.031  10
   6   2  -4 4757.18 244.376  15
   6   2  -3 111.307 56.4245  28
  -6  -2   3 166.716 64.8949  25
   6   2  -2 752.149 107.429  38
   6   2  -2 903.294 118.181  28
  -6  -2   2 726.706 105.181  25
   6   2  -1 1049.36 124.430  28
   6   2  -1 874.449 118.058  38
  -6  -2   1 902.285 117.851  25
   6   2   0 232.962 64.9857  38
   6   2   0 232.667 78.7117  28
  -6  -2   0 191.858 71.2329  25
   6   2   1 3078.30 179.928  38
   6   2   1 3275.50 205.388  28
  -6  -2  -1 3192.88 200.121  25
   6   2   2 3661.48 193.694  28
  -6  -2  -2 3435.07 183.237  25
   6   2   3 1091.19 92.1605  28
  -6  -2  -3 1204.96 90.6646  25
   6   3 -12 55.3132 24.9328  36
  -6  -3  12 40.0622 23.6703  32
  -6  -3  11 4317.76 177.835  32
  -6  -3  10 317.395 71.0666  32
  -6  -3   9 1577.36 141.392  32
  -6  -3   8 5396.80 263.357  32
   6   3  -7 4455.89 247.218  10
  -6  -3   7 4660.61 246.727  32
   6   3  -6 4.36489 48.1823  10
   6   3  -6 50.1245 62.2706  15
   6   3  -5 2577.43 190.885  10
   6   3  -5 2435.95 181.897  15
   6   3  -4 367.677 81.3876  10
   6   3  -4 465.643 87.5688  15
   6   3  -3 73.6190 57.8739  10
   6   3  -3 34.8055 51.7161  15
   6   3  -3 51.1105 56.3390  28
  -6  -3   3 134.948 64.7516  25
   6   3  -2 1844.28 163.320  28
  -6  -3   2 1507.72 138.977  25
   6   3  -1 1623.16 152.487  28
  -6  -3   1 1815.66 153.914  25
   6   3   0 230.922 82.0923  28
  -6  -3   0 195.087 75.8827  25
   6   3   1 2374.27 161.386  28
  -6  -3  -1 2484.94 158.852  25
   6   3   2 661.115 68.0967  10
   6   3   2 647.354 77.3174  28
  -6  -3  -2 748.140 78.9466  25
   6   3   3 94.2740 26.7797  28
  -6  -3  -3 91.2660 25.5828  25
   6   4 -12 854.980 58.5865  36
   6   4 -11 141.074 40.9698  20
  -6  -4  11 146.245 41.4734  32
  -6  -4  10 36.9799 42.2883  32
   6   4 -10 5.97273 40.4087  20
  -6  -4   9 788.628 98.5757  32
  -6  -4   8 130.777 60.4003  32
   6   4  -7 336.773 84.8289  10
  -6  -4   7 328.380 83.0606  32
   6   4  -6-0.16659 55.7815  10
   6   4  -6 126.360 60.3990  15
   6   4  -5 1098.46 130.989  10
   6   4  -5 1033.99 122.495  15
   6   4  -4 3196.37 209.886  10
   6   4  -4 2952.64 184.749  15
   6   4  -3 1185.62 130.990  10
   6   4  -3 1046.25 108.405  15
  -6  -4   3 1101.51 109.940  25
   6   4  -2 1931.20 156.724  10
   6   4  -2 2034.43 169.588  28
  -6  -4   2 2037.21 149.571  25
   6   4  -1 399.196 79.9890  10
   6   4  -1 377.948 88.3282  28
  -6  -4   1 268.812 68.6326  25
   6   4   0 87.2722 44.9748  10
   6   4   0 73.4919 51.5561  28
  -6  -4   0 53.0405 47.7625  25
   6   4   1 3477.69 133.770  10
   6   4   1 3565.84 160.445  28
  -6  -4  -1 3477.77 149.107  25
  -6  -4  -2 584.524 48.6329  25
   6   5 -11 175.915 38.2724  20
   6   5 -11 196.867 46.2960  36
   6   5 -10-18.8317 38.2752  20
  -6  -5  10 8.89575 31.6267  32
   6   5 -10-5.76347 30.9804  31
  -6  -5   9-5.27900 38.7580  32
   6   5  -9 34.0819 40.8527  31
  -6  -5   8 522.911 81.8631  32
   6   5  -7-43.9870 55.7481  10
  -6  -5   7-4.88708 46.7244  32
   6   5  -6 1366.95 112.315  23
   6   5  -6 1448.10 139.701  10
   6   5  -5 51.0160 49.8320  23
   6   5  -5 37.1998 52.5066  10
   6   5  -4 2191.90 153.603  23
   6   5  -4 1961.33 152.874  10
   6   5  -3 730.629 94.9800  10
   6   5  -2 131.347 49.2785  10
  -6  -5   2 76.1071 43.1911  25
   6   5  -1 606.757 68.4687  10
  -6  -5   1 581.511 68.9017  25
   6   5   0 5.76302 27.8221  23
  -6  -5   0 19.0399 29.8749  25
   6   6 -11 9.53610 19.5872  20
   6   6 -11 34.8379 26.0167  36
   6   6 -10-0.94758 31.7813  20
   6   6 -10-52.8246 35.2716  36
   6   6 -10 1.65912 24.3887  31
   6   6  -9 93.1561 48.2976  20
  -6  -6   9 49.6947 33.9227  32
   6   6  -9 84.1840 42.4882  31
   6   6  -8 26.3053 46.2169  20
  -6  -6   8 37.7947 39.2896  32
   6   6  -8 43.3607 44.5456  31
   6   6  -7 44.9405 43.8024  20
  -6  -6   7 14.5510 34.3150  32
   6   6  -6 408.654 62.2450  23
   6   6  -6 449.618 78.6211  10
   6   6  -6 379.481 64.4716  20
   6   6  -5 29.8765 39.2844  23
   6   6  -5 19.8058 42.4381  10
   6   6  -4 39.9934 46.6144  23
   6   6  -4 38.2254 42.4536  10
   6   6  -3-5.42702 38.9781  23
   6   6  -3-57.5995 35.1325  10
   6   6  -2 388.232 56.6273  23
   6   6  -1-26.8008 25.6474  23
   6   7  -9 362.638 46.8025  20
   6   7  -9 344.024 45.4783  31
   6   7  -8 165.189 42.7513  31
   6   7  -8 130.820 35.6098  20
  -6  -7   7 145.693 33.5209  32
   6   7  -7 174.272 47.1214  31
   6   7  -7 178.441 36.2532  20
   6   7  -6 8.87824 28.6166  23
  -6  -7   6 25.8318 26.5524  32
   6   7  -6 0.59753 34.0033  31
   6   7  -5-37.1471 31.9803  23
  -6  -7   5-31.8851 30.7230  32
   6   7  -5 8.96761 25.6092  31
   6   7  -4 261.140 43.5304  23
   6   7  -3-37.6978 24.0133  23
  -7  11   1 546.322 44.1967  19
  -7  11   0 932.835 60.8583  19
  -7  11  -1 169.019 28.8813  19
  -7  11  -2 6.84500 31.5700  29
  -7  10   4 186.999 28.2135  37
  -7  10   3 581.239 57.7335  37
  -7  10   3 537.574 48.2513  19
  -7  10   2 168.292 41.3642  19
  -7  10   2 160.298 40.8667  37
  -7  10   1 71.3245 38.0190  37
  -7  10   1 68.0578 39.0426  19
  -7  10   0 482.963 55.7605  37
  -7  10   0 440.595 61.9241  19
  -7  10  -1 734.334 70.9734  19
  -7  10  -1 780.448 71.1137  14
  -7  10  -2 1.47965 25.2575  19
  -7  10  -2-27.2897 30.3084  14
  -7  10  -3 1063.84 73.2114  14
  -7  10  -3 982.447 65.3315  27
  -7  10  -4 266.687 34.8482  14
  -7   9   5 7.61079 23.7341  37
  -7   9   5 4.36928 71.3812  35
  -7   9   4 31.9232 35.5060  37
  -7   9   4 47.8722 27.7911  19
  -7   9   4-3.92770 83.5979  35
  -7   9   3 193.290 53.0546  37
  -7   9   3-6.42496 93.4988  35
  -7   9   2 1734.70 125.302  37
  -7   9   1 200.428 55.6762  37
  -7   9   1 143.500 43.2491  14
  -7   9   0 3360.52 160.962  37
  -7   9   0 3271.29 158.428  14
  -7   9  -1 707.585 80.5521  14
  -7   9  -1 820.419 88.2720  27
  -7   9  -2 10.2588 70.7627  29
  -7   9  -2 1.97431 36.3246  14
  -7   9  -2 13.0068 36.0803  27
  -7   9  -3 193.009 42.3904  33
  -7   9  -3 260.054 52.3063  14
  -7   9  -3 257.233 56.8064  27
  -7   9  -4 16.3579 25.6940  33
  -7   9  -4-5.41191 27.9805  14
  -7   9  -4-5.15306 30.0541  27
  -7   9  -5 44.9701 19.7984  14
  -7   9  -5 8.77381 21.4942  27
  -7   8   6 1090.99 73.1949  11
  -7   8   6 1058.17 71.8034  37
  -7   8   5 246.337 49.2750  11
  -7   8   5 181.210 47.1597  37
  -7   8   4 480.118 79.7053  37
  -7   8   3 2772.76 170.321  37
  -7   8   2 704.403 94.2625  37
  -7   8   1 4256.42 206.866  37
  -7   8   1 4569.99 195.040  14
  -7   8   0 3223.95 170.818  37
  -7   8   0 3246.00 172.304  14
  -7   8   0 3386.02 187.532  27
  -7   8  -1 485.834 75.2817  33
  -7   8  -1 524.888 78.6173  14
  -7   8  -1 532.425 86.3612  27
  -7   8  -2 153.010 55.1857  33
  -7   8  -2 94.4291 54.9175  27
  -7   8  -3 623.776 82.0065  33
  -7   8  -3 569.495 84.2228  27
  -7   8  -4-8.95566 36.1495  33
  -7   8  -4 9.43572 36.2781  27
  -7   8  -5 1218.12 82.6195  33
  -7   8  -5 1243.03 82.2137  27
  -7   7   8-13.3678 24.2682  11
  -7   7   7 1065.74 87.3086  11
  -7   7   6 2505.86 147.310  11
  -7   7   6 2557.21 136.107  37
  -7   7   5 22488.2 453.496  37
  -7   7   4 1124.21 118.597  37
  -7   7   3 557.155 93.5685  37
  -7   7   3 551.431 84.4805  13
  -7   7   2 530.388 90.1143  37
  -7   7   2 467.490 81.6013  13
  -7   7   2 404.707 73.9347  27
  -7   7   1 887.306 104.289  37
  -7   7   1 1129.67 120.049  13
  -7   7   1 934.374 114.628  27
  -7   7   0 405.996 72.1120  37
  -7   7   0 444.599 83.3897  33
  -7   7   0 442.567 86.7601  27
  -7   7   0 389.966 87.2491  26
  -7   7  -1 1262.20 129.058  33
  -7   7  -1 1122.84 128.980  27
  -7   7  -1 1213.89 117.950  26
  -7   7  -2 1343.86 131.407  33
  -7   7  -2 1240.24 130.987  27
  -7   7  -3 197.030 68.9859  33
  -7   7  -3 95.8808 62.9564  27
  -7   7  -4 185.793 58.0207  33
  -7   7  -4 191.593 58.9932  27
   7  -7   5 316.545 38.6283  38
  -7   7  -5 402.875 59.4765  33
  -7   6   9-18.3473 26.0503  11
  -7   6   8 0.79885 38.5557  11
  -7   6   7 3540.59 184.789  11
  -7   6   7 3269.50 144.634  37
  -7   6   6 25629.7 477.350  37
  -7   6   5 36.5948 64.7169  37
  -7   6   4 2036.98 161.252  37
   7  -6  -4 2086.67 149.032  17
  -7   6   4 2158.42 152.111  13
  -7   6   3 19.5059 47.7230  37
  -7   6   3 9.80004 46.1890  13
  -7   6   3 12.2243 36.1327  27
  -7   6   3 7.01036 58.6973  26
  -7   6   2 1760.55 147.799  37
  -7   6   2 1950.77 154.663  13
  -7   6   2 2148.79 164.659  27
  -7   6   2 1799.31 162.451  26
  -7   6   1 731.069 99.4530  37
  -7   6   1 771.728 107.510  33
  -7   6   1 762.558 104.700  13
  -7   6   1 808.869 107.972  27
  -7   6   1 741.730 107.321  26
  -7   6   0 431.414 74.6283  37
  -7   6   0 499.753 91.9790  33
  -7   6   0 422.065 83.2200  13
  -7   6   0 510.381 93.7246  27
  -7   6   0 464.709 88.5374  26
  -7   6  -1 4945.83 255.071  33
  -7   6  -1 4848.18 233.410  13
  -7   6  -1 4926.86 253.874  27
  -7   6  -1 4758.53 234.361  26
   7  -6   2 11946.7 339.613  38
  -7   6  -2 11276.8 378.819  33
  -7   6  -2 11550.1 375.456  27
   7  -6   3 1034.89 103.665  38
  -7   6  -3 1146.60 126.576  33
  -7   6  -3 1109.73 120.740  27
   7  -6   4 2643.22 145.740  38
  -7   6  -4 2622.46 161.816  33
  -7   6  -4 2581.68 151.364  27
   7  -6   5 253.723 46.2976  38
  -7   6  -5 243.104 49.9740  33
  -7   6  -5 283.764 46.1463  27
  -7   5   9 205.321 51.7843  11
  -7   5   9 169.491 36.5002  32
   7  -5  -9 172.414 40.5396   9
  -7   5   8 955.668 105.782  11
  -7   5   8 977.019 91.0333  32
  -7   5   7 5452.44 211.791  37
  -7   5   6 268.553 70.8207  37
   7  -5  -6 531.761 81.8874  17
   7  -5  -5 3231.94 187.112  17
  -7   5   5 3249.83 179.450  13
   7  -5  -4 9839.03 335.534  17
  -7   5   4 9628.77 323.780  13
  -7   5   4 9722.52 364.838  26
  -7   5   3 2846.58 190.431  27
  -7   5   3 2854.89 183.711  13
  -7   5   3 2761.09 198.530  26
  -7   5   2 293.391 72.2509  33
  -7   5   2 250.516 72.0935  27
  -7   5   2 283.651 70.5876  13
  -7   5   2 467.745 96.8438  26
  -7   5   1 192.453 75.1812  33
  -7   5   1 214.003 68.0605  13
  -7   5   1 166.605 66.1661  27
  -7   5   1 299.508 84.3831  26
  -7   5   0 2222.73 182.047  33
  -7   5   0 2429.31 171.204  13
  -7   5   0 2381.63 182.145  27
  -7   5   0 2433.37 182.958  26
   7  -5   1 15133.0 412.095  38
  -7   5  -1 15498.9 456.879  33
  -7   5  -1 14173.1 389.122  13
  -7   5  -1 15392.4 445.082  27
  -7   5  -1 14687.3 414.979  26
   7  -5   2 26108.8 540.787  38
  -7   5  -2 26920.5 588.902  33
  -7   5  -2 25821.1 554.783  27
  -7   5  -2 25351.4 505.541  26
   7  -5   3 3710.39 200.646  38
  -7   5  -3 3575.81 207.252  33
  -7   5  -3 3600.10 196.921  27
   7  -5   4 15.5923 45.2427  38
  -7   5  -4 6.72642 43.9015  33
  -7   5  -4-3.38943 34.8689  27
  -7   5  -5-16.7063 32.9264  33
   7  -5   5 35.9657 32.0815  38
  -7   4  10 451.614 55.3899  11
   7  -4 -10 489.396 54.0867   9
  -7   4  10 421.609 51.0363  32
  -7   4   9 30.7960 41.3673  11
  -7   4   9 39.2144 40.3208  32
  -7   4   8 339.789 71.2308  32
  -7   4   7 1139.94 108.741  37
  -7   4   7 1552.07 133.346  32
   7  -4  -6 35.9291 46.9703  17
  -7   4   6 75.6175 45.4900  13
   7  -4  -5 125.288 51.7754  17
  -7   4   5 81.0863 57.9742  26
  -7   4   4 122.957 60.5264  27
  -7   4   4 61.4072 64.4638  26
  -7   4   3 16434.7 451.979  27
  -7   4   3 19473.7 498.814  26
  -7   4   2 2268.86 181.043  33
  -7   4   2 2543.92 186.961  27
  -7   4   1 9897.46 367.699  33
   7  -4  -1 10413.2 343.752  38
  -7   4   1 10262.5 363.270  27
  -7   4   1 10507.6 345.933  13
  -7   4   0 1960.25 174.350  33
   7  -4   0 1823.54 155.452  38
  -7   4   0 1645.59 142.117  13
  -7   4   0 1899.51 167.577  27
   7  -4   1 525.512 97.6726  38
  -7   4  -1 547.258 106.750  33
  -7   4  -1 432.810 73.4364  13
  -7   4  -1 627.682 102.677  27
   7  -4   2 607.847 103.434  38
  -7   4  -2 656.538 107.378  33
  -7   4  -2 561.482 93.5711  27
   7  -4   3 295.896 77.7293  38
  -7   4  -3 209.728 70.0132  33
   7  -4   3 192.025 53.0840  16
  -7   4  -3 232.958 63.2234  27
   7  -4   4 62.5091 44.1226  38
  -7   4  -4 63.8055 44.9201  33
   7  -4   4 61.1729 41.3584  16
  -7   4  -4 32.9314 34.2505  27
   7  -4   5 40.3763 34.5247  38
  -7   4  -5 65.9356 29.3041  33
  -7   3  11 48.6102 25.7186  32
   7  -3 -11-31.1042 20.9103   9
  -7   3  10 310.571 55.2694  11
  -7   3  10 315.057 57.3455  32
   7  -3 -10 328.246 57.8499   9
  -7   3   9 83.1384 47.8794  32
  -7   3   8-12.5152 42.7608  32
   7  -3  -7 271.384 73.2490  17
  -7   3   7 281.888 65.8385  32
   7  -3  -6-21.8246 54.0142  17
  -7   3   6 1.15170 45.9905  32
  -7   3   6 16.8675 53.1149  26
   7  -3  -5 3769.26 214.734  17
  -7   3   5 4025.70 224.129  26
  -7   3   4 12142.1 387.311  27
  -7   3   4 12628.2 395.818  26
   7  -3  -3 1539.94 134.523  38
   7  -3  -3 1300.58 155.290   2
  -7   3   3 1367.76 139.164  27
  -7   3   2 56.8822 47.4436  33
   7  -3  -2-56.7231 51.6601  38
   7  -3  -2 63.5595 63.9025   2
  -7   3   2 20.4894 52.8146  27
  -7   3   1 1944.35 169.266  33
   7  -3  -1 2311.37 173.690  38
  -7   3   1 2091.76 169.138  27
   7  -3   0 1410.57 142.476  38
  -7   3   0 1169.52 134.147  33
  -7   3   0 1316.69 136.852  27
  -7   3   0 1201.64 117.751  13
   7  -3   1 1356.43 141.563  38
  -7   3  -1 1351.46 141.190  33
   7  -3   1 1436.17 131.850  16
  -7   3  -1 1511.81 141.117  27
   7  -3   2 83.9319 63.8453  38
  -7   3  -2 147.308 66.3709  33
   7  -3   2 150.998 58.8356  16
  -7   3  -2 174.900 52.5033  27
   7  -3   3 5024.52 237.791  38
  -7   3  -3 4479.53 209.981  33
   7  -3   3 4900.90 216.876  16
   7  -3   4 13.2544 43.7602  38
  -7   3  -4 71.0598 37.5209  33
   7  -3   4 43.5643 39.3081  16
   7  -3   5 48.2920 28.9968  38
  -7   2  11 43.3886 23.2843  11
  -7   2  11 54.1357 36.2907  32
   7  -2 -11-30.0925 32.6695   9
  -7   2  10 441.101 64.8140  11
  -7   2  10 746.186 91.0994  32
  -7   2   9 45.1250 56.8502  32
  -7   2   8 4864.02 244.555  32
   7  -2  -7 368.671 84.3956  17
  -7   2   7 518.463 92.1725  32
   7  -2  -6 1274.69 133.204  17
  -7   2   6 1232.89 128.905  32
   7  -2  -6 1289.87 124.213  15
  -7   2   6 1228.11 122.323  26
   7  -2  -5 3781.38 215.310  17
  -7   2   5 3468.39 201.406  32
   7  -2  -5 3535.05 199.694  15
  -7   2   5 4005.54 219.694  26
  -7   2   4 15.4424 31.7702   6
  -7   2   4-73.5944 49.0717  27
   7  -2  -3 10854.0 360.308  38
   7  -2  -3 11036.7 431.080   2
  -7   2   3 11328.4 381.223  27
  -7   2   2 792.165 109.728  27
   7  -2  -2 917.924 116.896  38
   7  -2  -1 118.866 64.0464  38
  -7   2   1 110.733 57.8904  33
  -7   2   1 58.8638 53.3764  27
   7  -2   0 139.219 68.0198  38
  -7   2   0 66.7644 55.6836  33
  -7   2   0 49.3264 50.6548  27
  -7   2   0 21.0659 34.0148  13
   7  -2   1 156.741 75.2628  38
  -7   2  -1 58.7935 49.6612  33
   7  -2   1 107.742 55.3131  16
  -7   2  -1 124.694 53.1102  27
  -7   2  -1 27.8162 52.3158  25
   7  -2   2-7.29433 55.5321  38
  -7   2  -2 15.8241 43.9705  33
   7  -2   2-48.9358 63.1075  16
   7  -2   3 3449.58 190.377  38
   7  -2   3 3460.75 182.450  16
   7  -2   4 1710.25 112.337  38
  -7   1  11 24.9255 38.6390  32
   7  -1 -11 21.6142 35.0480   9
  -7   1  10 2530.18 160.610  32
  -7   1   9 3317.13 200.398  32
  -7   1   8 84.6620 61.8589  32
   7  -1  -7 150.020 64.1338  17
  -7   1   7 184.139 65.5876  32
   7  -1  -6 2999.46 197.202  17
  -7   1   6 3082.71 198.915  32
   7  -1  -6 3100.51 194.696  15
  -7   1   5 903.002 127.585   6
   7  -1  -5 613.920 96.8332  17
  -7   1   5 698.207 101.120  32
   7  -1  -5 656.074 100.431  15
  -7   1   4 7002.66 321.071   6
   7  -1  -4 7190.17 290.873  17
   7  -1  -4 7032.00 338.970   2
   7  -1  -3 153.179 63.6232  38
   7  -1  -3 308.856 70.1392  10
   7  -1  -3 212.207 73.4714   2
  -7   1   3 177.298 72.8416  27
   7  -1  -2 9167.63 346.430  38
  -7   1   2 9157.27 340.196  27
  -7   1   2 9139.47 337.029  25
   7  -1  -1 1206.70 140.523  38
  -7   1   1 1256.69 129.878  27
  -7   1   1 1476.97 146.209  25
   7  -1   0 1537.75 149.406  38
  -7   1   0 1571.92 135.691  27
  -7   1   0 1390.96 138.463  25
   7  -1   1 517.042 96.9727  38
  -7   1  -1 603.709 96.9130  25
   7  -1   2 950.357 109.472  38
  -7   1  -2 839.795 96.5527  25
   7  -1   3 181.172 56.2969  38
   7  -1   4 0.34310 23.3956  38
  -7   0  12 312.089 41.3629  32
  -7   0  11 55.3295 41.3935  32
   7   0 -11 53.2936 39.3755   9
  -7   0  10 612.582 93.8620  32
  -7   0   9 767.357 107.791  32
  -7   0   8 17.4575 54.7815  32
   7   0  -7-12.3152 52.7453  17
  -7   0   7 29.0302 62.1354  32
   7   0  -7-43.9081 46.5061  15
   7   0  -6 2252.03 162.510  10
   7   0  -6 2000.28 168.047  17
  -7   0   6 2039.35 169.142  32
   7   0  -6 2213.12 172.206  15
   7   0  -5 3598.15 205.940  10
   7   0  -5 3543.52 208.288  17
  -7   0   5 3633.71 216.715  32
   7   0  -5 3395.39 214.375  15
   7   0  -4 57.6470 44.8742  10
   7   0  -4-17.1348 59.3298  17
   7   0  -3 166.283 65.7061  38
   7   0  -3 181.681 62.3165  10
   7   0  -3 72.4780 49.4253  17
  -7   0   3 168.261 67.4844  25
   7   0  -2 2226.02 178.712  38
  -7   0   2 2575.61 183.077  25
   7   0  -1 248.871 78.0633  38
  -7   0   1 259.025 81.2161  25
   7   0   0 911.048 117.747  38
   7   0   0 953.866 107.220  28
  -7   0   0 792.182 110.507  25
   7   0   1 3065.08 188.755  38
   7   0   1 2989.50 172.828  28
  -7   0  -1 2900.32 183.068  25
   7   0   2 767.196 89.4347  38
   7   0   2 739.233 81.2466  28
  -7   0  -2 884.699 96.9461  25
   7   0   3 1146.86 81.8782  38
   7   0   3 922.328 70.1664  28
  -7  -1  12 286.591 39.7525  32
  -7  -1  11 6.82017 40.6953  32
   7   1 -11 54.7539 36.1388   9
  -7  -1  10 44.3022 54.3522  32
  -7  -1   9 379.381 88.6016  32
  -7  -1   8 78.7769 68.7676  32
   7   1  -7 6399.10 274.507  10
  -7  -1   7 6491.72 292.921  32
   7   1  -7 6483.61 291.298  15
   7   1  -6 1261.19 131.687  10
   7   1  -6 1535.73 141.995  17
  -7  -1   6 1415.64 145.126  32
   7   1  -6 1385.86 146.655  15
   7   1  -5 571.033 93.0079  10
   7   1  -5 579.897 90.6636  17
   7   1  -5 461.686 94.6192  15
   7   1  -4 22.1252 47.4283  10
   7   1  -4 88.6154 57.8317  15
   7   1  -3 3288.77 211.857  10
  -7  -1   3 3387.14 200.861  25
   7   1  -2 1603.39 149.659  38
   7   1  -2 1658.11 145.534  28
  -7  -1   2 1542.24 146.083  25
   7   1  -1 815.710 110.802  38
   7   1  -1 840.242 107.473  28
  -7  -1   1 778.261 111.621  25
   7   1   0 695.680 97.8076  38
   7   1   0 576.505 88.6172  28
  -7  -1   0 676.116 106.682  25
   7   1   1 1476.14 119.571  38
   7   1   1 1445.12 118.861  28
  -7  -1  -1 1429.87 125.606  25
   7   1   2 111.312 38.9732  28
  -7  -1  -2 67.2580 42.0667  25
   7   1   3 213.206 35.4915  10
  -7  -2  11 33.1670 39.6561  32
  -7  -2  10 182.968 61.3923  32
  -7  -2   9 81.3469 62.0507  32
  -7  -2   8 1076.79 128.166  32
   7   2  -7 130.168 67.5811  10
  -7  -2   7 98.3626 69.7974  32
   7   2  -7 118.961 63.6249  15
   7   2  -6 2971.61 199.678  10
   7   2  -6 3075.69 204.454  15
   7   2  -5 241.946 75.4461  10
   7   2  -5 351.114 82.4159  15
   7   2  -4 197.680 72.8534  10
   7   2  -4 136.784 58.1960  15
   7   2  -3 24.8746 54.2458  10
   7   2  -3 54.9900 50.9955  15
  -7  -2   3 23.0882 55.0835  25
   7   2  -2 36.7251 52.5782  10
   7   2  -2 26.3688 45.9947  28
  -7  -2   2-5.94281 49.6836  25
   7   2  -1 2206.69 159.796  28
  -7  -2   1 2386.45 165.296  25
   7   2   0 9035.12 289.455  28
  -7  -2   0 9182.15 293.606  25
   7   2   1 2105.78 125.060  28
  -7  -2  -1 2132.96 128.467  25
   7   2   2 85.4988 28.8871  10
   7   2   2 121.578 30.0035  28
   7   3 -11 71.1139 26.4828  20
  -7  -3  11 11.2481 31.6607  32
  -7  -3  10 263.229 60.8313  32
  -7  -3   9 138.019 60.9194  32
  -7  -3   8 447.851 91.4603  32
   7   3  -7 3883.47 220.824  10
  -7  -3   7 3696.44 218.514  32
   7   3  -6 606.252 99.3790  10
   7   3  -6 662.823 100.675  15
   7   3  -5-5.69996 52.2755  10
   7   3  -5-11.3565 48.5327  15
   7   3  -4 20.5267 50.7918  10
   7   3  -4 3.28618 46.0977  15
   7   3  -3 7.21821 52.9026  10
   7   3  -3-36.1207 41.4395  15
  -7  -3   3 17.4712 44.4880  25
   7   3  -2 71.4118 52.4613  10
   7   3  -2 123.566 49.0767  15
  -7  -3   2 63.2555 48.7841  25
   7   3  -1 6966.85 255.841  10
   7   3  -1 6784.13 250.568  28
  -7  -3   1 6949.20 241.141  25
   7   3   0 15383.1 322.379  10
   7   3   0 15047.8 321.924  28
  -7  -3   0 15350.0 317.287  25
   7   3   1 435.519 46.0276  10
  -7  -3  -1 554.604 53.9479  25
   7   4 -11 70.8684 24.9566  20
  -7  -4  11 97.6371 28.4701  32
   7   4 -10 1.86938 33.2112  20
  -7  -4  10-36.9423 34.7560  32
  -7  -4   9 703.829 85.2807  32
  -7  -4   8 75.0236 55.5101  32
   7   4  -7 116.971 59.2016  10
  -7  -4   7 84.1861 57.4443  32
   7   4  -6 538.476 95.3507  10
   7   4  -5 4291.44 185.881  23
   7   4  -5 4335.69 225.223  10
   7   4  -5 4229.13 198.906  15
   7   4  -4 6.64411 48.0610  10
   7   4  -4-22.4716 42.4154  15
   7   4  -3 417.506 76.8049  10
  -7  -4   3 409.152 63.1970  25
   7   4  -2 6500.41 226.973  10
  -7  -4   2 6194.47 200.410  25
   7   4  -1 3635.12 145.317  10
  -7  -4   1 3486.64 136.257  25
   7   4   0 82.7259 27.4638  23
   7   5 -10 137.942 35.7453  20
  -7  -5  10 147.429 29.6088  32
   7   5  -9-10.9434 38.4420  20
  -7  -5   9-21.5241 32.6613  32
   7   5  -9-29.1821 33.4513  31
  -7  -5   8-24.0805 42.8232  32
  -7  -5   7 80.0017 46.5378  32
   7   5  -6 1379.96 116.356  10
  -7  -5   6 1419.15 115.532  32
   7   5  -5 1204.45 90.0440  23
   7   5  -5 1333.12 111.649  10
   7   5  -4 68.3747 39.3125  23
   7   5  -4 16.7246 39.3163  10
   7   5  -3 295.079 51.6343  23
   7   5  -3 274.743 51.2247  10
   7   5  -2 130.308 35.4961  23
   7   5  -2 112.777 29.8982  10
   7   6  -9 100.667 29.1795  20
   7   6  -9 166.172 31.6296  31
   7   6  -8 14.5435 25.1938  20
  -7  -6   8 18.2651 24.4225  32
   7   6  -8 81.6964 34.9414  31
   7   6  -7 1395.31 75.8527  20
  -7  -6   7 1561.22 88.2731  32
   7   6  -7 1609.78 97.5260  31
  -7  -6   6 321.588 47.5981  32
   7   6  -6 321.719 49.1029  31
   7   6  -5 428.107 44.1108  23
  -7  -6   5 478.255 53.0427  32
   7   6  -5 518.291 50.1341  31
   7   6  -4-2.05420 20.1897  23
  -7  -6   4-27.9431 26.6423  32
  -8  10   3 11.4615 18.6069  37
  -8  10   2 196.238 31.9310  37
  -8  10   2 165.958 31.2660  19
  -8  10   1 53.7930 22.9726  37
  -8  10   1 6.59901 23.4277  19
  -8  10   0-0.15144 21.6716  19
  -8   9   5-43.6275 20.2807  37
  -8   9   4 17.3378 25.9460  37
  -8   9   4 36.0624 23.7094  19
  -8   9   3 25.8477 33.6076  37
  -8   9   3-32.6902 41.4639  29
  -8   9   2 170.552 44.0560  37
  -8   9   1 715.203 68.7530  37
  -8   9   0 109.297 30.1424  37
  -8   9   0 77.9898 34.6247  27
  -8   9  -1-0.28044 50.8502  29
  -8   9  -1 39.1655 26.2909  14
  -8   9  -1 40.2726 33.8519  27
  -8   9  -2 43.3611 25.1602  14
  -8   9  -2 10.7707 26.8871  27
  -8   9  -3 25.3593 21.9984  27
  -8   8   6 345.281 40.9898  37
  -8   8   5 120.509 39.5976  37
  -8   8   5 119.286 29.8304  19
  -8   8   4 106.782 44.3967  37
  -8   8   3 516.702 74.2716  37
  -8   8   2 26.9649 40.0604  37
   8  -8  -2 20.3445 34.5518  17
  -8   8   1 862.867 84.8719  37
  -8   8   1 857.275 90.8271  27
  -8   8   0 41.4336 29.8262  37
  -8   8   0 22.7655 43.6875  27
  -8   8  -1 30.4000 30.0413  14
  -8   8  -1 69.4147 48.8381  27
  -8   8  -2 31.5568 34.7373  33
  -8   8  -2 5.84531 45.9919  29
  -8   8  -2 49.8984 29.3835  14
  -8   8  -2 79.8614 44.1925  27
  -8   8  -3 498.386 56.3672  33
  -8   8  -3 408.798 43.8911  14
  -8   8  -3 528.159 60.0098  27
  -8   7   7 894.214 69.9425  11
  -8   7   7 757.720 51.9557  37
  -8   7   6 292.964 55.2445  11
  -8   7   6 433.197 61.3674  37
  -8   7   5 895.498 93.9428  37
  -8   7   4 1679.33 131.379  37
  -8   7   3 177.838 61.0172  37
   8  -7  -3 82.3351 44.2771  17
  -8   7   2-22.4119 40.7135  37
  -8   7   2-29.0595 49.3926  13
  -8   7   2-33.9381 48.6477  27
  -8   7   1 299.715 62.7481  37
  -8   7   1 380.592 75.7257  27
  -8   7   0 1065.26 113.103  27
  -8   7   0 952.963 106.473  26
  -8   7  -1 803.285 95.8025  33
  -8   7  -1 835.571 99.2266  27
  -8   7  -2 59.6540 47.4700  33
  -8   7  -2 71.6731 49.6877  27
  -8   7  -3 49.8419 37.1564  33
  -8   7  -3 88.5346 41.5393  27
  -8   7  -4 84.0455 27.1918  27
  -8   6   8 15.4562 32.6513  11
  -8   6   7 849.287 75.2191  37
  -8   6   6 5042.46 205.196  37
  -8   6   5 285.845 68.2193  37
   8  -6  -5 287.170 64.2034  17
  -8   6   5 258.440 54.9376  13
  -8   6   4-17.7865 55.1906  37
   8  -6  -4 34.4084 47.4753  17
  -8   6   4-2.83327 41.9582  13
  -8   6   3 1479.28 131.556  37
  -8   6   3 1562.03 137.134  27
  -8   6   3 1398.38 128.535  13
  -8   6   3 1438.73 146.703  26
  -8   6   2 17.8733 43.4585  37
  -8   6   2-8.89243 45.4782  13
  -8   6   2 0.44308 46.3462  27
  -8   6   2-52.1914 67.5917  26
  -8   6   1 446.148 77.2002  37
  -8   6   1 492.076 84.8069  13
  -8   6   1 434.884 87.2652  27
  -8   6   1 470.624 90.6760  26
  -8   6   0 153.525 64.3288  33
  -8   6   0 231.389 71.7595  13
  -8   6   0 183.369 71.9163  27
  -8   6   0 107.473 65.1776  26
  -8   6  -1 13669.7 386.433  33
  -8   6  -1 13860.0 387.095  27
  -8   6  -1 13172.3 339.651  26
   8  -6   2 245.195 53.2363  38
  -8   6  -2 282.262 74.1868  33
  -8   6  -2 197.006 61.5019  27
   8  -6   3 224.686 44.2382  38
  -8   6  -3 263.956 59.6735  33
  -8   6  -3 275.397 53.6851  27
  -8   5   9 640.436 64.2826  11
   8  -5  -9 634.708 56.4984   9
  -8   5   7 161.087 50.6717  37
  -8   5   6 41.7101 57.9165  37
   8  -5  -6 132.055 48.5617  17
  -8   5   6 101.984 45.0374  13
   8  -5  -5 3222.71 187.704  17
  -8   5   5 2987.77 174.266  13
   8  -5  -4 1564.69 139.958  17
  -8   5   4 1495.31 135.351  13
  -8   5   4 1478.37 146.666  26
  -8   5   3 109.878 53.5832  27
  -8   5   3 104.485 53.9472  13
  -8   5   3 63.4036 63.5195  26
  -8   5   2 39.3863 55.9182  27
  -8   5   2 10.9365 47.4428  13
  -8   5   2 0.32406 60.4835  26
  -8   5   1 1325.95 143.454  33
  -8   5   1 1715.67 144.819  13
  -8   5   1 1699.41 155.191  27
  -8   5   1 1581.16 150.438  26
   8  -5   0 28141.4 523.477  38
  -8   5   0 26942.6 580.300  33
  -8   5   0 26725.3 509.743  13
  -8   5   0 27188.2 573.842  27
  -8   5   0 26576.9 545.769  26
   8  -5   1 1840.98 141.021  38
  -8   5  -1 2237.69 169.782  33
  -8   5  -1 2019.32 160.085  27
  -8   5  -1 1855.45 142.549  26
   8  -5   2 1754.89 126.106  38
  -8   5  -2 1974.72 144.871  33
  -8   5  -2 1866.72 133.986  27
  -8   5  -2 1842.08 117.018  26
   8  -5   3 208.705 47.6354  38
  -8   5  -3 187.621 49.9269  33
  -8   5  -3 195.004 47.2580  27
   8  -5   4 718.755 56.3058  38
  -8   4  10-8.61016 23.3276  11
   8  -4 -10 10.4461 18.4883   9
  -8   4   9 608.218 72.6452  11
  -8   4   9 547.784 58.8249  32
  -8   4   8 780.296 74.2769  37
  -8   4   8 837.481 82.5012  32
  -8   4   7 465.763 76.2596  37
   8  -4  -6 37.1568 44.4451  17
  -8   4   6 40.6555 44.3099  13
   8  -4  -5 595.131 94.9299  17
  -8   4   5 537.259 98.6559  26
   8  -4  -4 75.2248 57.9458  17
  -8   4   4 93.9437 70.4596  26
  -8   4   3 2665.89 192.329  27
  -8   4   3 2667.51 180.371  13
  -8   4   3 2719.95 198.286  26
   8  -4  -2 3773.43 205.054  38
  -8   4   2 3668.10 225.883  27
  -8   4   2 3419.28 201.571  13
  -8   4   2 3591.61 222.962  26
   8  -4  -1 2407.90 172.927  38
  -8   4   1 2264.86 186.716  33
  -8   4   1 2701.80 196.690  27
  -8   4   1 2542.47 170.976  13
   8  -4   0 760.610 102.891  38
  -8   4   0 845.096 116.197  33
  -8   4   0 883.255 100.709  13
  -8   4   0 857.974 117.146  27
   8  -4   1 3896.75 207.878  38
  -8   4  -1 3679.77 207.327  33
  -8   4  -1 3609.66 197.304  27
   8  -4   2 2905.27 165.652  38
  -8   4  -2 3004.68 168.553  33
  -8   4  -2 2963.71 154.086  27
  -8   4  -2 2964.33 150.827  26
   8  -4   3 388.018 61.9354  38
   8  -4   4 1.67910 20.7155  38
  -8   3  10-8.85641 26.2451  11
  -8   3  10 30.8761 29.9494  32
   8  -3 -10 16.8546 30.9386   9
  -8   3   9-5.74003 33.9220  32
  -8   3   8 1.05634 34.9232  37
  -8   3   8-48.9837 52.6695  32
   8  -3  -7 625.992 97.8441  17
  -8   3   7 610.545 85.2073  32
   8  -3  -6 389.124 81.4066  17
  -8   3   6 342.502 79.3649  26
   8  -3  -5 14806.9 424.148  17
  -8   3   5 14105.2 416.467  26
   8  -3  -4 2129.69 168.716  17
   8  -3  -4 2246.34 161.336  15
  -8   3   4 2322.92 180.760  26
  -8   3   3 839.855 121.141  27
   8  -3  -2 836.958 113.615  38
  -8   3   2 799.189 118.092  27
   8  -3  -1 5453.01 262.322  38
  -8   3   1 5685.18 269.130  27
  -8   3   1 5353.99 232.267  13
   8  -3   0 6.41516 52.2310  38
  -8   3   0 25.4368 37.8339  13
  -8   3   0 2.15286 48.7035  27
   8  -3   1 2194.55 159.162  38
  -8   3  -1 2186.38 144.695  27
   8  -3   2 960.334 99.9649  38
   8  -3   3 1005.28 82.4360  38
   8  -2 -11 27.5328 22.6564   9
  -8   2  10 185.147 39.8702  11
  -8   2  10 135.234 43.8692  32
  -8   2   9 1278.64 111.356  32
  -8   2   8 15.4289 41.9655  32
   8  -2  -7 796.858 108.385  17
  -8   2   7 923.436 108.544  32
   8  -2  -6 1.53843 58.0422  17
  -8   2   6 28.0943 49.4520  32
   8  -2  -6 16.0207 39.1777  15
  -8   2   6 135.800 52.3573  26
   8  -2  -5 82.0531 62.5343  17
  -8   2   5 35.8997 53.3223  32
   8  -2  -5 6.78463 38.8474  15
  -8   2   5-18.6068 53.0155  26
   8  -2  -4 252.670 74.9513  17
   8  -2  -4 350.216 77.2588  15
   8  -2  -2 212.823 71.5386  38
   8  -2  -2 172.739 51.1705  10
  -8   2   2 15.0879 55.5265  27
   8  -2  -1 2.83087 52.8064  38
  -8   2   1 7.97265 46.4296  27
  -8   2   1 24.8131 40.6845  13
   8  -2   0 62.5440 62.8268  38
  -8   2   0 7.12536 41.0410  27
   8  -2   1 697.302 98.4520  38
   8  -2   2 4244.19 181.412  38
   8  -2   3 732.593 62.8646  38
   8  -1 -11 437.299 48.6044   9
  -8   1  11 325.148 45.1777  32
  -8   1  10 517.087 70.8387  32
  -8   1   9 53.6254 49.1457  32
  -8   1   8 19.2879 50.2172  32
   8  -1  -7 1733.12 152.139  17
  -8   1   7 1708.88 144.648  32
   8  -1  -6 341.192 78.9194  17
  -8   1   6 335.795 76.4742  32
   8  -1  -6 377.525 81.7175  15
  -8   1   6 450.153 79.2721  26
   8  -1  -5 166.858 58.3249  17
  -8   1   5 57.1257 49.1078  32
   8  -1  -5 89.3506 51.3184  15
  -8   1   5 159.770 58.9950  26
   8  -1  -4 1586.76 132.907  10
   8  -1  -4 1618.86 139.884  17
  -8   1   4 1441.32 129.134  32
   8  -1  -4 1488.59 144.439  15
   8  -1  -3 101.017 52.9038  10
   8  -1  -3 133.153 53.2720  17
   8  -1  -2 4820.20 233.027  10
   8  -1  -2 4466.50 241.396  38
   8  -1  -2 4365.05 209.618  17
   8  -1  -1 7.71381 60.1886  38
   8  -1   0 1659.65 141.342  38
   8  -1   1 1137.28 106.400  38
   8  -1   2 501.806 62.6677  38
   8   0 -11 788.878 58.7092   9
  -8   0  11 891.602 72.5373  32
  -8   0  10 0.39080 41.5726  32
  -8   0   9 258.431 67.6169  32
  -8   0   8 61.8478 60.5921  32
  -8   0   7 1006.59 117.173  32
   8   0  -7 1055.56 115.468  15
   8   0  -6 85.5403 46.8760  10
   8   0  -6 70.2625 50.7810  17
  -8   0   6 194.592 68.2037  32
   8   0  -6 129.906 58.6068  15
   8   0  -5 230.879 63.3287  10
   8   0  -5 233.556 62.3262  17
  -8   0   5 277.015 77.6651  32
   8   0  -5 235.086 74.2428  15
   8   0  -4 1368.02 129.623  10
   8   0  -4 1228.15 116.798  17
   8   0  -4 1448.41 141.955  15
   8   0  -3 3606.23 204.660  10
   8   0  -2 652.202 99.3445  10
   8   0  -1 196.663 62.7291  38
   8   0   0-16.4927 42.9577  38
   8   0   2 93.1505 30.2856  10
  -8  -1  11-19.3458 31.7837  32
  -8  -1  10 0.18939 40.1436  32
  -8  -1   9 1077.51 113.783  32
  -8  -1   8 2042.99 153.832  32
   8   1  -7 5105.24 226.855  10
  -8  -1   7 5072.26 240.739  32
   8   1  -7 5505.64 249.103  15
   8   1  -6 623.033 92.9798  10
  -8  -1   6 578.670 95.0476  32
   8   1  -6 810.477 107.132  15
   8   1  -5 441.566 84.1569  10
   8   1  -5 497.290 76.9694  17
  -8  -1   5 439.725 86.3109  32
   8   1  -5 319.282 80.7606  15
   8   1  -4 4321.69 225.045  10
   8   1  -4 4644.85 234.824  15
   8   1  -3 2009.76 156.242  10
   8   1  -3 2150.44 159.660  15
   8   1  -2 1157.48 117.582  10
   8   1  -1 46.8594 47.4333  10
   8   1   0 80.2023 42.0184  10
   8   1   0 86.1197 37.2046  15
   8   1   1 34.8500 27.8546  10
  -8  -2  11-10.9827 27.5123  32
  -8  -2  10 23.0662 38.0647  32
  -8  -2   9 3049.73 164.678  32
  -8  -2   8 12454.4 350.894  32
   8   2  -7 243.562 65.6054  10
  -8  -2   7 175.401 71.0894  32
   8   2  -6 1312.83 125.729  10
  -8  -2   6 1590.35 138.670  32
   8   2  -6 1254.49 125.343  15
   8   2  -5 6.50377 46.8856  10
   8   2  -5 41.2864 47.1094  15
   8   2  -4-3.99355 50.4057  10
   8   2  -4-10.3356 42.8994  15
   8   2  -3-39.0736 51.6457  10
   8   2  -3 39.4917 40.4958  15
   8   2  -2 84.2321 47.6348  10
   8   2  -2 138.731 44.2154  15
   8   2  -1 656.845 76.6193  10
   8   2  -1 554.672 58.9495  15
   8   2   0 694.241 60.4283  10
   8   3 -10 2306.60 106.119  20
  -8  -3  10 2391.09 117.427  32
  -8  -3   9 5027.27 188.079  32
  -8  -3   8 131.193 57.6356  32
   8   3  -7 1387.05 119.688  10
  -8  -3   7 1501.77 125.073  32
   8   3  -6 485.041 79.5661  10
  -8  -3   6 390.932 76.7908  32
   8   3  -5 40.1118 44.8915  10
   8   3  -5 19.3144 37.1616  15
   8   3  -4 15.1929 40.7097  10
   8   3  -4 17.7145 34.3658  15
   8   3  -3 221.294 54.4348  10
   8   3  -3 239.666 45.3229  15
   8   3  -2 167.390 47.8736  10
   8   3  -1 76.2265 26.7406  23
   8   3  -1 60.9175 25.9936  10
   8   4 -10 197.083 32.0534  20
   8   4  -9 56.3609 31.1669  20
  -8  -4   9-5.29445 31.6535  32
   8   4  -9 61.1410 25.9400  31
  -8  -4   8-44.4175 37.5282  32
  -8  -4   7 49.1561 39.7168  32
   8   4  -6 129.550 46.4073  10
  -8  -4   6 107.265 45.5191  32
   8   4  -5 19.2485 37.1499  10
  -8  -4   5-6.11209 36.8862  32
   8   4  -4 45.2059 27.0571  23
   8   4  -4 34.2427 32.9636  10
   8   4  -3 228.234 34.3685  23
   8   4  -3 161.158 36.3182  10
   8   5  -8 26.1223 20.2906  31
  -8  -5   7 14.5082 22.9333  32
   8   5  -7-16.8046 23.9588  31
  -8  -5   6 448.080 46.7892  32
   8   5  -6 406.730 42.1098  31
  -9   9   3 9.15602 19.4957  37
  -9   9   3-2.81692 16.7213  19
  -9   9   2-2.99121 36.9532  29
  -9   9   1-55.1606 37.5413  29
  -9   8   5 12.6956 19.5183  37
  -9   8   4 53.3899 31.3796  37
  -9   8   3 1866.53 101.142  37
  -9   8   2 2698.37 114.006  37
   9  -8  -2 2545.64 107.371  17
  -9   8   1 26.9458 21.5364  37
   9  -8  -1 26.6795 26.9298  17
  -9   8   0 82.7565 33.6207  27
  -9   8  -1 34.0578 25.9218  27
  -9   7   6 645.476 53.2634  11
  -9   7   6 858.623 64.8121  37
  -9   7   5 1458.55 95.7880  37
  -9   7   4 238.693 51.7320  37
   9  -7  -4 286.094 50.2250  17
  -9   7   3 464.118 66.4112  37
   9  -7  -3 451.836 62.4799  17
  -9   7   2 3.37060 32.2844  37
   9  -7  -2 10.8751 34.9790  17
  -9   7   1-23.7394 28.6534  37
  -9   7   1 13.0961 39.3381  27
  -9   7   0 283.825 56.1463  27
  -9   7  -1 429.100 59.3341  27
  -9   7  -2-11.8608 21.5928  27
  -9   6   7 3667.99 123.422  37
  -9   6   6 425.018 61.5733  37
  -9   6   5-32.1598 42.9172  37
   9  -6  -5 18.2067 35.2769  17
  -9   6   5 50.5529 34.3124  13
  -9   6   4 983.825 96.9288  37
   9  -6  -4 1135.26 101.689  17
  -9   6   4 865.614 88.0503  13
  -9   6   3 266.958 60.3601  37
   9  -6  -3 261.963 61.4454  17
  -9   6   3 204.782 53.9959  13
  -9   6   2 137.375 45.0301  37
  -9   6   2 169.922 56.8577  13
  -9   6   2 143.761 55.9433  27
  -9   6   2 31.2968 54.7239  26
  -9   6   1 1063.02 106.767  27
  -9   6   1 948.536 99.8764  26
  -9   6   0 38.3725 50.7819  27
  -9   6   0-16.1754 44.0661  26
  -9   6  -1 181.304 49.5738  27
  -9   6  -2 874.367 63.0757  27
  -9   5   8 1047.44 57.9212  37
  -9   5   7 385.300 58.7768  37
  -9   5   6 490.311 73.4710  37
   9  -5  -6 532.760 75.6923  17
  -9   5   6 487.762 62.7756  13
  -9   5   5-10.7404 43.5746  37
   9  -5  -5-3.20912 45.1124  17
  -9   5   5-7.77411 38.7742  13
   9  -5  -4 35.9397 43.8453  17
  -9   5   4 6.78270 44.6456  13
  -9   5   4 12.5582 53.3835  26
   9  -5  -3 76.2200 53.7738  17
  -9   5   3 109.359 55.5424  13
  -9   5   3 35.8906 60.7456  26
  -9   5   2 605.562 75.3704  37
  -9   5   2 666.573 91.9240  13
  -9   5   2 713.833 101.288  27
  -9   5   2 574.861 93.1235  26
  -9   5   1 287.198 63.2697  13
  -9   5   1 223.184 74.4410  27
  -9   5   1 309.316 76.6218  26
  -9   5   0 12931.6 326.010  27
  -9   5   0 13018.3 311.468  26
  -9   5  -1 94.3899 40.5052  27
  -9   5  -1 97.0190 36.8199  26
  -9   4   9 945.010 69.1966  11
  -9   4   8-8.34138 28.3808  37
  -9   4   7 154.924 50.5333  37
  -9   4   7 130.847 37.2749  13
   9  -4  -6 476.976 80.5411  17
  -9   4   6 361.706 65.3334  13
   9  -4  -5 1126.45 116.522  17
  -9   4   5 970.164 103.489  13
  -9   4   5 1057.83 113.917  26
   9  -4  -4 249.187 71.5724  17
  -9   4   4 256.692 65.0283  13
  -9   4   4 229.891 68.7457  26
   9  -4  -3 2200.45 157.893  17
   9  -4  -3 2202.03 136.913  15
  -9   4   3 2358.28 155.397  13
  -9   4   3 2375.47 169.879  26
  -9   4   2 4130.74 194.007  13
  -9   4   2 4006.50 212.436  26
  -9   4   1 2221.49 130.092  13
  -9   4   1 2115.27 149.226  27
  -9   4   1 2290.73 155.706  26
   9  -4   0 301.182 59.4916  38
  -9   4   0 316.390 61.9943  27
  -9   4   0 321.359 67.6073  26
   9  -4   1 1216.59 88.9241  38
  -9   4  -1 1181.70 83.3811  26
  -9   3   8 7.05258 31.0063  37
  -9   3   8-65.2481 28.5507  13
   9  -3  -7 14.9968 44.5651  17
  -9   3   7 23.3742 32.6846  13
   9  -3  -6 591.694 91.4415  17
  -9   3   6 652.008 85.3576  26
   9  -3  -5 5793.45 248.687  17
   9  -3  -5 4959.65 202.412  15
  -9   3   5 5441.72 238.191  26
   9  -3  -4 742.853 97.4385  17
   9  -3  -4 646.343 82.9301  15
  -9   3   4 737.800 97.0337  13
  -9   3   4 815.497 106.020  26
   9  -3  -3 3.29349 51.6709  17
   9  -3  -3 49.8020 44.8460  15
  -9   3   3 9.80187 46.5635  13
  -9   3   3 7.22340 57.9609  26
   9  -3  -2 102.087 50.4107  17
  -9   3   2 38.6241 44.9009  13
  -9   3   2 125.124 65.6127  26
  -9   3   1 387.234 55.8876  13
   9  -3   0 153.380 50.0830  38
   9  -3   0 183.794 43.3240  17
  -9   3   0 66.2010 45.8652  26
   9  -3   1 21.1881 29.8905  38
  -9   3  -1 27.2002 31.4334  26
   9  -2 -10 421.507 46.0465   9
  -9   2   9 260.990 47.7459  32
  -9   2   8 403.641 59.4376  32
   9  -2  -7 1537.97 130.410  17
  -9   2   7 1532.16 110.899  32
   9  -2  -6 270.554 68.2430  17
   9  -2  -6 176.628 49.6513  15
  -9   2   6 215.047 56.6664  26
   9  -2  -5 488.907 83.6709  17
   9  -2  -5 373.213 68.5852  15
  -9   2   5 436.327 78.8672  26
   9  -2  -4 33.6126 44.0997  17
   9  -2  -4 40.0954 47.7665  15
  -9   2   4 54.2521 54.1357  26
   9  -2  -3 193.656 56.0003  17
   9  -2  -3 88.9478 50.0775  15
  -9   2   3 88.0294 47.3119  13
   9  -2  -2 7.93253 36.0430  17
  -9   2   2 81.4867 39.0520  13
   9  -2  -1 52.1328 35.3936  10
   9  -2  -1 58.0092 29.3641  17
   9  -2   0 47.5575 29.5488  10
  -9   2  -1 2226.51 94.4563  26
  -9   1  10 233.480 38.8621  32
   9  -1 -10 182.332 31.5656   9
  -9   1   9 36.3895 32.8948  32
  -9   1   8-1.30748 38.7273  32
  -9   1   7 27.6737 39.5640  32
   9  -1  -6 207.013 63.0667  17
  -9   1   6 144.131 49.4998  32
   9  -1  -6 101.379 49.1482  15
  -9   1   6 75.1554 34.9166  26
   9  -1  -5 504.357 77.3528  17
  -9   1   5 422.172 67.0131  32
   9  -1  -5 461.995 76.5918  15
  -9   1   5 498.542 78.2966  26
   9  -1  -4 124.701 44.5411  10
   9  -1  -4 29.2338 40.4023  17
   9  -1  -4 53.1757 49.3008  15
  -9   1   4 5.18042 49.5644  26
   9  -1  -3 6.80006 33.2210  10
   9  -1  -3 45.0342 32.5961  17
   9  -1  -3-15.5982 45.3248  15
   9  -1  -2 119.344 44.1322  10
   9  -1  -2 109.707 51.6873  15
   9  -1  -1 77.3980 36.1830  10
   9  -1   0 15.5706 26.1986  10
   9  -1   0 0.27052 28.2243  15
  -9   0  10 16.1238 26.9534  32
  -9   0   9 4.27066 35.2357  32
  -9   0   8 111.425 47.1610  32
  -9   0   7 27.6544 44.3957  32
   9   0  -6 658.788 75.0539  10
  -9   0   6 554.722 78.8956  32
   9   0  -6 625.705 86.7058  15
   9   0  -5 249.613 54.0310  10
   9   0  -5 245.338 52.6203  17
  -9   0   5 180.031 49.3986  32
   9   0  -5 196.776 59.2582  15
  -9   0   5 208.228 51.4878  26
   9   0  -4 1538.30 113.291  10
  -9   0   4 1418.64 102.318  32
   9   0  -4 1638.41 128.198  15
   9   0  -3 22.5587 37.3586  10
   9   0  -3-21.0205 39.9309  15
  -9   0   3 38.7915 30.0342  13
   9   0  -2 49.2850 33.4204  10
   9   0  -2 82.4848 42.0342  15
   9   0  -1 283.896 46.0483  10
   9   0  -1 305.356 47.1154  15
  -9  -1  10-27.5441 28.0123  32
  -9  -1   9 163.790 43.3570  32
  -9  -1   8 83.6673 45.0217  32
  -9  -1   7 175.755 52.7847  32
   9   1  -6-1.08734 35.2371  10
  -9  -1   6 6.56665 37.3820  32
   9   1  -6-21.7920 43.0375  15
   9   1  -5 157.378 46.3243  10
  -9  -1   5 292.620 57.8201  32
   9   1  -5 256.350 60.6100  15
   9   1  -4-1.92787 34.0265  10
  -9  -1   4 21.8833 32.2507  32
   9   1  -4-18.9713 36.0313  15
   9   1  -3 136.412 42.8321  10
  -9  -1   3 175.070 38.1984  32
   9   1  -3 171.132 44.8734  15
   9   1  -2 52.9157 27.1158  10
   9   1  -2 108.502 33.1277  15
  -9  -2   9 468.377 54.9506  32
  -9  -2   8 710.038 71.4249  32
  -9  -2   7 77.5234 42.7636  32
   9   2  -6 99.8291 36.8240  10
  -9  -2   6 56.0466 40.2258  32
   9   2  -5 67.3128 35.9072  10
  -9  -2   5 25.0514 31.3949  32
   9   2  -5 14.7777 31.9579  15
   9   2  -4 86.2481 37.8169  10
  -9  -2   4 100.059 32.8827  32
   9   2  -4 94.8758 31.3999  15
   9   2  -3 73.4368 30.4750  10
  -9  -3   8 124.807 32.8358  32
  -9  -3   7 34.4392 27.5751  32
  -9  -3   6-31.5043 27.4438  32
   9   3  -5-1.49193 22.6631  10
  -9  -3   5 26.1568 20.9381  32
 -10   7   4 159.712 27.7793  37
  10  -7  -3 14.7600 20.0826  17
  10  -7  -2 40.0266 20.9991  17
 -10   6   6 22.3151 20.4987  37
 -10   6   5 786.645 61.6101  37
  10  -6  -5 650.472 57.5901  17
 -10   6   4 181.632 37.7552  37
  10  -6  -4 226.702 41.6229  17
 -10   6   3 71.5106 26.7768  37
  10  -6  -3 75.6808 32.9468  17
  10  -6  -2 479.941 53.8467  17
  10  -6  -1 674.274 55.6283  17
 -10   5   7 433.256 40.8409  37
 -10   5   6 221.558 40.3773  37
 -10   5   6 152.264 31.7216  13
 -10   5   5 72.4167 35.7037  37
  10  -5  -5 109.890 38.6501  17
 -10   5   5 62.0029 28.9932  13
 -10   5   4 234.121 44.3126  37
  10  -5  -4 230.252 49.0960  17
 -10   5   4 166.390 42.3875  13
 -10   5   3-2.33316 26.6293  37
  10  -5  -3 24.2455 34.0184  17
 -10   5   3 5.71694 31.1652  13
 -10   5   3-9.81292 39.6832  26
  10  -5  -2 4915.70 161.425  17
 -10   5   2 4482.82 159.630  26
  10  -5  -1 3245.73 115.192  17
 -10   5   1 3147.64 115.711  26
 -10   4   7 227.224 39.1078  37
 -10   4   7 151.933 28.2787  13
 -10   4   6 136.681 40.3018  37
  10  -4  -6 104.612 40.9685  17
 -10   4   6 138.378 38.5074  13
 -10   4   5 293.569 51.9465  37
  10  -4  -5 385.120 61.6627  17
 -10   4   5 274.911 49.0724  13
 -10   4   4 368.971 55.4533  37
  10  -4  -4 320.660 59.4279  17
 -10   4   4 308.664 52.9177  13
 -10   4   4 369.184 62.4281  26
 -10   4   3 1173.61 75.8810  37
  10  -4  -3 1287.59 94.3927  17
 -10   4   3 1251.80 86.3171  13
 -10   4   3 1314.27 99.6946  26
  10  -4  -2 2565.49 114.210  17
 -10   4   2 2633.13 126.695  26
 -10   4   1 179.415 39.1324  26
 -10   3   7 1072.67 76.5955  37
 -10   3   7 1034.36 70.3712  13
  10  -3  -6 0.16296 34.8812  17
 -10   3   6-2.85856 30.0381  13
  10  -3  -5 51.7885 42.3177  17
 -10   3   5 92.1309 41.1941  13
 -10   3   5 125.536 45.0852  26
  10  -3  -4 381.385 58.0188  17
  10  -3  -4 245.173 43.3817  15
 -10   3   4 423.045 59.1573  13
 -10   3   4 406.152 63.5313  26
  10  -3  -3 944.397 74.0144  17
  10  -3  -3 761.669 67.1994  15
 -10   3   3 771.445 66.3495  13
 -10   3   3 916.179 83.5179  26
  10  -3  -2-6.59773 19.4029  17
  10  -3  -2-41.9733 26.8663  15
 -10   3   2-13.7065 31.4081  26
 -10   3   1 486.890 47.6871  26
 -10   2   8 269.660 37.3374  37
 -10   2   8 234.452 33.3033  13
 -10   2   7 528.894 55.9470  13
 -10   2   6 524.393 60.6618  13
  10  -2  -5 124.857 39.3798  17
  10  -2  -5 64.0873 32.9110  15
 -10   2   5 126.023 41.0767  13
 -10   2   5 140.498 41.1563  26
  10  -2  -4 270.291 44.1312  17
  10  -2  -4 171.703 41.1955  15
 -10   2   4 254.937 45.9020  13
 -10   2   4 195.576 45.8649  26
  10  -2  -3 176.175 38.8007  15
 -10   2   3 203.231 34.6360  13
 -10   2   3 212.911 45.5906  26
  10  -2  -2-19.7280 26.0360  15
 -10   2   2-5.40127 27.3119  26
 -10   1   8-5.30898 19.9424  13
 -10   1   7 8.11933 25.7545  13
 -10   1   6 12.7139 28.5147  13
  10  -1  -5-16.5839 27.7176  15
 -10   1   5 47.5612 29.8857  13
 -10   1   5 43.8151 28.3642  26
  10  -1  -4 51.7342 30.4747  15
 -10   1   4 133.761 29.7725  13
 -10   1   4 132.101 36.1338  26
  10  -1  -3 23.3330 22.4279  15
 -10   1   3 36.7182 23.1619  26
 -10   0   8 26.5328 18.4946  13
 -10   0   6-7.15764 24.0150  13
 -10   0   5 163.693 28.7478  13
  10   0  -4 373.802 42.6477  15
   0   0   0    0.00    0.00   0

TITL exp_34061 in P-1
REM P-1 (#2 in standard setting)
CELL 1.54184   8.467982   9.757791  10.210097 104.5775 111.8823 106.5885
ZERR    3.00   0.000490   0.000495   0.000628   0.0048   0.0057   0.0049
LATT  1
SFAC C H N O
UNIT 33.00 30.00 3.00 3.00
TREF
HKLF 4
END
;
loop_
_space_group_symop_operation_xyz
'x, y, z'
'-x, -y, -z'
loop_
_atom_site_label
_atom_site_type_symbol
_atom_site_fract_x
_atom_site_fract_y
_atom_site_fract_z
_atom_site_U_iso_or_equiv
_atom_site_adp_type
_atom_site_occupancy
_atom_site_site_symmetry_order
_atom_site_calc_flag
_atom_site_refinement_flags_posn
_atom_site_refinement_flags_adp
_atom_site_refinement_flags_occupancy
_atom_site_disorder_assembly
_atom_site_disorder_group
O1 O 0.26180(14) 0.89380(11) 0.61705(11) 0.0687(3) Uani 1 1 d . . . . .
O2 O 0.62462(13) 0.72655(10) 0.92966(10) 0.0631(3) Uani 1 1 d . . . . .
N1 N 0.22943(15) 0.64959(12) 0.51991(12) 0.0562(3) Uani 1 1 d . . . . .
N2 N 0.45351(15) 0.81844(12) 0.78189(12) 0.0563(3) Uani 1 1 d . . . . .
N3 N 0.41981(14) 0.55814(11) 0.67794(11) 0.0531(3) Uani 1 1 d . . . . .
C1 C 0.0410(2) 0.34891(18) 0.27641(15) 0.0683(4) Uani 1 1 d . . . . .
H1 H -0.0012 0.4256 0.2608 0.082 Uiso 1 1 calc R . . . .
C2 C -0.0468(2) 0.1998(2) 0.15944(17) 0.0851(5) Uani 1 1 d . . . . .
H2 H -0.1485 0.1759 0.0646 0.102 Uiso 1 1 calc R . . . .
C3 C 0.0144(3) 0.0876(2) 0.1819(2) 0.0892(6) Uani 1 1 d . . . . .
H3 H -0.0463 -0.0130 0.1027 0.107 Uiso 1 1 calc R . . . .
C4 C 0.1634(3) 0.12125(19) 0.3189(2) 0.0849(5) Uani 1 1 d . . . . .
H4 H 0.2052 0.0440 0.3332 0.102 Uiso 1 1 calc R . . . .
C5 C 0.2528(2) 0.26881(16) 0.43661(18) 0.0690(4) Uani 1 1 d . . . . .
H5 H 0.3553 0.2916 0.5305 0.083 Uiso 1 1 calc R . . . .
C6 C 0.19101(17) 0.38337(14) 0.41604(14) 0.0551(3) Uani 1 1 d . . . . .
C7 C 0.28490(16) 0.53931(13) 0.54374(13) 0.0498(3) Uani 1 1 d . . . . .
C8 C 0.49416(17) 0.69758(14) 0.78949(13) 0.0516(3) Uani 1 1 d . . . . .
C9 C 0.32045(18) 0.78521(15) 0.64352(15) 0.0547(3) Uani 1 1 d . . . . .
C10 C 0.3547(2) 1.04671(16) 0.74137(19) 0.0701(4) Uani 1 1 d . . . . .
H10A H 0.3853 1.0356 0.8395 0.084 Uiso 1 1 calc R . . . .
H10B H 0.2698 1.0985 0.7269 0.084 Uiso 1 1 calc R . . . .
C11 C 0.5252(2) 1.14199(18) 0.7470(2) 0.0739(4) Uani 1 1 d . . . . .
C12 C 0.6599(3) 1.2194(2) 0.7483(3) 0.1089(7) Uani 1 1 d . . . . .
H12 H 0.7683 1.2817 0.7494 0.131 Uiso 1 1 calc R . . . .
C13 C 0.6787(2) 0.60103(16) 0.94380(15) 0.0637(4) Uani 1 1 d . . . . .
H13A H 0.7487 0.5858 0.8879 0.076 Uiso 1 1 calc R . . . .
H13B H 0.5672 0.5033 0.9011 0.076 Uiso 1 1 calc R . . . .
C14 C 0.79587(19) 0.64587(17) 1.10754(16) 0.0640(4) Uani 1 1 d . . . . .
C15 C 0.8877(2) 0.6802(2) 1.23930(18) 0.0789(5) Uani 1 1 d . . . . .
H15 H 0.9614 0.7077 1.3451 0.095 Uiso 1 1 calc R . . . .
loop_
_atom_site_aniso_label
_atom_site_aniso_U_11
_atom_site_aniso_U_22
_atom_site_aniso_U_33
_atom_site_aniso_U_23
_atom_site_aniso_U_13
_atom_site_aniso_U_12
O1 0.0730(6) 0.0570(5) 0.0654(6) 0.0224(4) 0.0189(5) 0.0348(5)
O2 0.0650(5) 0.0529(5) 0.0455(5) 0.0132(4) 0.0070(4) 0.0234(4)
N1 0.0570(6) 0.0527(6) 0.0455(5) 0.0161(4) 0.0152(4) 0.0218(5)
N2 0.0586(6) 0.0476(5) 0.0475(5) 0.0127(4) 0.0156(5) 0.0216(4)
N3 0.0554(5) 0.0458(5) 0.0451(5) 0.0143(4) 0.0164(4) 0.0186(4)
C1 0.0674(8) 0.0641(8) 0.0478(7) 0.0128(6) 0.0191(6) 0.0145(6)
C2 0.0805(10) 0.0795(11) 0.0469(7) 0.0053(7) 0.0194(7) 0.0039(8)
C3 0.1045(13) 0.0575(9) 0.0718(10) -0.0024(7) 0.0484(10) 0.0073(8)
C4 0.1013(12) 0.0541(8) 0.0856(11) 0.0099(7) 0.0487(10) 0.0259(8)
C5 0.0735(9) 0.0539(7) 0.0657(8) 0.0133(6) 0.0300(7) 0.0232(6)
C6 0.0564(7) 0.0501(6) 0.0463(6) 0.0122(5) 0.0238(5) 0.0140(5)
C7 0.0499(6) 0.0481(6) 0.0429(6) 0.0154(5) 0.0193(5) 0.0165(5)
C8 0.0516(6) 0.0480(6) 0.0434(6) 0.0150(5) 0.0157(5) 0.0180(5)
C9 0.0557(6) 0.0510(6) 0.0507(6) 0.0190(5) 0.0192(5) 0.0236(5)
C10 0.0773(9) 0.0527(7) 0.0781(9) 0.0210(7) 0.0333(8) 0.0347(7)
C11 0.0790(10) 0.0589(8) 0.0870(10) 0.0308(7) 0.0356(8) 0.0378(7)
C12 0.0986(14) 0.0830(13) 0.156(2) 0.0511(14) 0.0682(15) 0.0397(11)
C13 0.0651(8) 0.0604(8) 0.0558(7) 0.0231(6) 0.0182(6) 0.0287(6)
C14 0.0568(7) 0.0657(8) 0.0627(8) 0.0284(6) 0.0191(6) 0.0277(6)
C15 0.0723(9) 0.0911(11) 0.0619(8) 0.0348(8) 0.0158(7) 0.0386(8)
loop_
_atom_type_symbol
_atom_type_description
_atom_type_scat_dispersion_real
_atom_type_scat_dispersion_imag
_atom_type_scat_source
C C 0.0181 0.0091 'International Tables Vol C Tables 4.2.6.8 and 6.1.1.4'
H H 0.0000 0.0000 'International Tables Vol C Tables 4.2.6.8 and 6.1.1.4'
N N 0.0311 0.0180 'International Tables Vol C Tables 4.2.6.8 and 6.1.1.4'
O O 0.0492 0.0322 'International Tables Vol C Tables 4.2.6.8 and 6.1.1.4'
loop_
_geom_angle_atom_site_label_1
_geom_angle_atom_site_label_2
_geom_angle_atom_site_label_3
_geom_angle
_geom_angle_site_symmetry_1
_geom_angle_site_symmetry_3
C9 O1 C10 117.70(11) . .
C8 O2 C13 115.84(10) . .
C7 N1 C9 114.04(10) . .
C9 N2 C8 112.10(10) . .
C8 N3 C7 114.14(10) . .
C2 C1 H1 120.2 . .
C6 C1 H1 120.2 . .
C6 C1 C2 119.54(16) . .
C1 C2 H2 119.8 . .
C3 C2 C1 120.37(16) . .
C3 C2 H2 119.8 . .
C2 C3 H3 119.8 . .
C4 C3 C2 120.38(14) . .
C4 C3 H3 119.8 . .
C3 C4 H4 119.9 . .
C3 C4 C5 120.17(17) . .
C5 C4 H4 119.9 . .
C4 C5 H5 120.0 . .
C4 C5 C6 120.09(16) . .
C6 C5 H5 120.0 . .
C1 C6 C5 119.45(13) . .
C1 C6 C7 121.00(13) . .
C5 C6 C7 119.55(12) . .
N1 C7 N3 124.59(11) . .
N1 C7 C6 118.76(11) . .
N3 C7 C6 116.64(11) . .
N2 C8 O2 113.35(10) . .
N3 C8 O2 118.96(11) . .
N3 C8 N2 127.68(11) . .
O1 C9 N1 112.96(11) . .
N2 C9 O1 119.61(11) . .
N2 C9 N1 127.43(11) . .
O1 C10 H10A 109.4 . .
O1 C10 H10B 109.4 . .
O1 C10 C11 111.11(13) . .
H10A C10 H10B 108.0 . .
C11 C10 H10A 109.4 . .
C11 C10 H10B 109.4 . .
C12 C11 C10 178.3(2) . .
C11 C12 H12 180.0 . .
O2 C13 H13A 110.3 . .
O2 C13 H13B 110.3 . .
O2 C13 C14 106.86(11) . .
H13A C13 H13B 108.6 . .
C14 C13 H13A 110.3 . .
C14 C13 H13B 110.3 . .
C15 C14 C13 178.86(17) . .
C14 C15 H15 180.0 . .
loop_
_geom_bond_atom_site_label_1
_geom_bond_atom_site_label_2
_geom_bond_distance
_geom_bond_site_symmetry_2
O1 C9 1.3368(15) .
O1 C10 1.4451(17) .
O2 C8 1.3372(14) .
O2 C13 1.4458(15) .
N1 C7 1.3315(15) .
N1 C9 1.3379(17) .
N2 C8 1.3317(16) .
N2 C9 1.3210(16) .
N3 C7 1.3428(15) .
N3 C8 1.3196(16) .
C1 H1 0.9400 .
C1 C2 1.394(2) .
C1 C6 1.3872(19) .
C2 H2 0.9400 .
C2 C3 1.371(3) .
C3 H3 0.9400 .
C3 C4 1.369(3) .
C4 H4 0.9400 .
C4 C5 1.385(2) .
C5 H5 0.9400 .
C5 C6 1.3919(19) .
C6 C7 1.4783(16) .
C10 H10A 0.9800 .
C10 H10B 0.9800 .
C10 C11 1.448(2) .
C11 C12 1.167(3) .
C12 H12 0.9400 .
C13 H13A 0.9800 .
C13 H13B 0.9800 .
C13 C14 1.4555(18) .
C14 C15 1.171(2) .
C15 H15 0.9400 .
