#------------------------------------------------------------------------------
#$Date: 2022-06-08 11:27:48 +0300 (Wed, 08 Jun 2022) $
#$Revision: 275907 $
#$URL: file:///home/coder/svn-repositories/cod/cif/8/10/53/8105361.cif $
#------------------------------------------------------------------------------
#
# This file is available in the Crystallography Open Database (COD),
# http://www.crystallography.net/
#
# All data on this site have been placed in the public domain by the
# contributors.
#
data_8105361
loop_
_publ_author_name
'Du, Xigang'
'Wang, Chunwei'
_publ_section_title
;
 Crystal structure of bis(6-aminopyridine-2-carboxylato-\k2
 O,N)-copper(II), C12H10O6N4Cu
;
_journal_issue                   5
_journal_name_full
'Zeitschrift f\"ur Kristallographie - New Crystal Structures'
_journal_page_first              1007
_journal_page_last               1008
_journal_paper_doi               10.1515/ncrs-2020-0041
_journal_volume                  235
_journal_year                    2020
_chemical_formula_moiety         'C12 H10 Cu N4 O4'
_chemical_formula_sum            'C12 H10 Cu N4 O4'
_chemical_formula_weight         337.78
_space_group_crystal_system      monoclinic
_space_group_IT_number           14
_space_group_name_Hall           '-P 2ybc'
_space_group_name_H-M_alt        'P 1 21/c 1'
_atom_sites_solution_hydrogens   geom
_atom_sites_solution_primary     dual
_cell_angle_alpha                90
_cell_angle_beta                 91.060(5)
_cell_angle_gamma                90
_cell_formula_units_Z            2
_cell_length_a                   3.7015(2)
_cell_length_b                   7.3920(4)
_cell_length_c                   21.3535(12)
_cell_measurement_reflns_used    2417
_cell_measurement_temperature    293
_cell_measurement_theta_max      27.7200
_cell_measurement_theta_min      3.9560
_cell_volume                     584.16(6)
_computing_cell_refinement       'CrysAlisPro 1.171.39.46 (Rigaku OD, 2018)'
_computing_data_collection       'CrysAlisPro 1.171.39.46 (Rigaku OD, 2018)'
_computing_data_reduction        'CrysAlisPro 1.171.39.46 (Rigaku OD, 2018)'
_computing_molecular_graphics    'Olex2 (Dolomanov et al., 2009)'
_computing_publication_material  'Olex2 (Dolomanov et al., 2009)'
_computing_structure_refinement  'ShelXL (Sheldrick, 2015)'
_computing_structure_solution    'ShelXT (Sheldrick, 2015)'
_diffrn_ambient_temperature      293.0
_diffrn_detector                 'CCD plate'
_diffrn_detector_area_resol_mean 8.0584
_diffrn_detector_type            EosS2
_diffrn_measured_fraction_theta_full 0.996
_diffrn_measured_fraction_theta_max 0.996
_diffrn_measurement_details
;
List of Runs (angles in degrees, time in seconds):

  # Type    Start    End  Width  t~exp~   \w     \q     \k     \f   Frames
--------------------------------------------------------------------------
  1  \w    -81.00   2.00   1.00   16.56    --  -13.80 -57.00  60.00   83
  2  \w     -2.00  24.00   1.00   16.56    --  -13.80 -99.00 120.00   26
  3  \w    -41.00  31.00   1.00   16.56    --  -13.80  77.00 -60.00   72
  4  \w    -81.00 -31.00   1.00   16.56    --  -13.80 -57.00   0.00   50
  5  \w    -81.00  14.00   1.00   16.56    --  -13.80 -19.00 120.00   95
  6  \w     -5.00  54.00   1.00   16.56    --   14.82 -99.00  60.00   59
;
_diffrn_measurement_device       'four-circle diffractometer'
_diffrn_measurement_device_type  'SuperNova, Single source at offset/far, EosS2'
_diffrn_measurement_method       '\w scans'
_diffrn_orient_matrix_type
'CrysAlisPro convention (1999,Acta A55,543-557)'
_diffrn_orient_matrix_UB_11      -0.1808896000
_diffrn_orient_matrix_UB_12      -0.0112102000
_diffrn_orient_matrix_UB_13      0.0096243000
_diffrn_orient_matrix_UB_21      0.0464142000
_diffrn_orient_matrix_UB_22      0.0375922000
_diffrn_orient_matrix_UB_23      0.0296519000
_diffrn_orient_matrix_UB_31      -0.0429152000
_diffrn_orient_matrix_UB_32      0.0875758000
_diffrn_orient_matrix_UB_33      -0.0115038000
_diffrn_radiation_monochromator  mirror
_diffrn_radiation_probe          x-ray
_diffrn_radiation_type           MoK\a
_diffrn_radiation_wavelength     0.71073
_diffrn_reflns_av_R_equivalents  0.0301
_diffrn_reflns_av_unetI/netI     0.0277
_diffrn_reflns_Laue_measured_fraction_full 0.996
_diffrn_reflns_Laue_measured_fraction_max 0.996
_diffrn_reflns_limit_h_max       4
_diffrn_reflns_limit_h_min       -4
_diffrn_reflns_limit_k_max       8
_diffrn_reflns_limit_k_min       -8
_diffrn_reflns_limit_l_max       25
_diffrn_reflns_limit_l_min       -25
_diffrn_reflns_number            4327
_diffrn_reflns_point_group_measured_fraction_full 0.996
_diffrn_reflns_point_group_measured_fraction_max 0.996
_diffrn_reflns_theta_full        25.242
_diffrn_reflns_theta_max         25.500
_diffrn_reflns_theta_min         3.352
_diffrn_source                   'micro-focus sealed X-ray tube'
_diffrn_source_type              'SuperNova (Mo) X-ray Source'
_exptl_absorpt_coefficient_mu    1.894
_exptl_absorpt_correction_T_max  1.00000
_exptl_absorpt_correction_T_min  0.47013
_exptl_absorpt_correction_type   multi-scan
_exptl_absorpt_process_details
;
CrysAlisPro 1.171.39.46 (Rigaku Oxford Diffraction, 2018)
Empirical absorption correction using spherical harmonics,
 implemented in SCALE3 ABSPACK scaling algorithm.
;
_exptl_crystal_colour            green
_exptl_crystal_colour_primary    green
_exptl_crystal_density_diffrn    1.920
_exptl_crystal_description       block
_exptl_crystal_F_000             342
_exptl_crystal_size_max          0.3
_exptl_crystal_size_mid          0.25
_exptl_crystal_size_min          0.22
_refine_diff_density_max         0.441
_refine_diff_density_min         -0.289
_refine_diff_density_rms         0.067
_refine_ls_extinction_coef       .
_refine_ls_extinction_method     none
_refine_ls_goodness_of_fit_ref   1.122
_refine_ls_hydrogen_treatment    constr
_refine_ls_matrix_type           full
_refine_ls_number_parameters     97
_refine_ls_number_reflns         1086
_refine_ls_number_restraints     0
_refine_ls_restrained_S_all      1.122
_refine_ls_R_factor_all          0.0355
_refine_ls_R_factor_gt           0.0319
_refine_ls_shift/su_max          0.000
_refine_ls_shift/su_mean         0.000
_refine_ls_structure_factor_coef Fsqd
_refine_ls_weighting_details
'w=1/[\s^2^(Fo^2^)+(0.0290P)^2^+0.7540P] where P=(Fo^2^+2Fc^2^)/3'
_refine_ls_weighting_scheme      calc
_refine_ls_wR_factor_gt          0.0750
_refine_ls_wR_factor_ref         0.0769
_reflns_Friedel_coverage         0.000
_reflns_Friedel_fraction_full    .
_reflns_Friedel_fraction_max     .
_reflns_number_gt                1016
_reflns_number_total             1086
_reflns_threshold_expression     'I > 2\s(I)'
_cod_data_source_file            suppl_ncrs-2020-0041_suppl.cif
_cod_data_source_block           20195198
_cod_database_code               8105361
_shelx_space_group_comment
;
The symmetry employed for this shelxl refinement is uniquely defined
by the following loop, which should always be used as a source of
symmetry information in preference to the above space-group names.
They are only intended as comments.
;
_shelx_estimated_absorpt_t_max   0.681
_shelx_estimated_absorpt_t_min   0.600
_reflns_odcompleteness_completeness 99.06
_reflns_odcompleteness_iscentric 1
_reflns_odcompleteness_theta     25.30
_olex2_refinement_description
;
1. Fixed Uiso
 At 1.2 times of:
  All C(H) groups, All N(H,H) groups
2.a Aromatic/amide H refined with riding coordinates:
 C3(H3), C4(H4), C5(H5)
2.b X=CH2 refined with riding coordinates:
 N2(H2A,H2B)
;
_shelx_res_file
;
    20195198.res created by SHELXL-2014/7

TITL 20195198_a.res in P2(1)/c
REM Old TITL 20195198 in P2(1)/c
REM SHELXT solution in P2(1)/c
REM R1 0.144, Rweak 0.549, Alpha 0.041, Orientation as input
REM Formula found by SHELXT: C14 N2 O4 Br
CELL 0.71073 3.7015 7.392 21.3535 90 91.06 90
ZERR 2 0.0002 0.0004 0.0012 0 0.005 0
LATT 1
SYMM -X,0.5+Y,0.5-Z
SFAC C H Cu N O
UNIT 24 20 2 8 8

L.S. 4 0 0
PLAN  20
SIZE 0.3 0.25 0.22
TEMP 19.85
BOND $H
list 4
HTAB
fmap 2 53
acta
OMIT 0 51
REM <olex2.extras>
REM <HklSrc "%.\\20195198.hkl">"
REM </olex2.extras>

WGHT    0.029000    0.754000
FVAR       0.76116
CU1   3    0.500000    0.500000    0.500000    10.50000    0.03261    0.01782 =
         0.01512    0.00281   -0.00402   -0.01186
O1    5    0.810235    0.678119    0.539058    11.00000    0.04882    0.02483 =
         0.01846    0.00600   -0.00765   -0.02064
O2    5    1.007929    0.775954    0.632026    11.00000    0.04615    0.02165 =
         0.02552    0.00044   -0.00984   -0.01483
N1    4    0.547923    0.377867    0.583898    11.00000    0.02010    0.01251 =
         0.01703    0.00043   -0.00140   -0.00391
N2    4    0.292225    0.095543    0.563373    11.00000    0.04313    0.01666 =
         0.02180    0.00209   -0.00493   -0.01250
AFIX  93
H2A   2    0.259851    0.125543    0.524763    11.00000   -1.20000
H2B   2    0.226622   -0.009666    0.576058    11.00000   -1.20000
AFIX   0
C1    1    0.853114    0.663542    0.599262    11.00000    0.02315    0.01529 =
         0.02164    0.00053   -0.00193   -0.00243
C2    1    0.711859    0.490861    0.626501    11.00000    0.01717    0.01488 =
         0.01814   -0.00072    0.00024   -0.00171
C3    1    0.760630    0.449990    0.688112    11.00000    0.02180    0.02011 =
         0.01790   -0.00180   -0.00302   -0.00181
AFIX  43
H3    2    0.865984    0.532753    0.715700    11.00000   -1.20000
AFIX   0
C4    1    0.647659    0.279456    0.708974    11.00000    0.02500    0.02253 =
         0.01655    0.00372   -0.00068    0.00233
AFIX  43
H4    2    0.674463    0.247930    0.750966    11.00000   -1.20000
AFIX   0
C5    1    0.499143    0.161048    0.667420    11.00000    0.02683    0.01528 =
         0.02290    0.00608    0.00326    0.00064
AFIX  43
H5    2    0.432814    0.046015    0.680584    11.00000   -1.20000
AFIX   0
C6    1    0.444387    0.212344    0.603634    11.00000    0.01760    0.01391 =
         0.02038    0.00095    0.00342   -0.00008
HKLF 4

REM  20195198_a.res in P2(1)/c
REM R1 =  0.0319 for    1016 Fo > 4sig(Fo)  and  0.0355 for all    1086 data
REM     97 parameters refined using      0 restraints

END

WGHT      0.0272      0.7600

REM Instructions for potential hydrogen bonds
EQIV $1 -x+1, -y+1, -z+1
HTAB N2 O1_$1
EQIV $2 x-1, y-1, z
HTAB N2 O2_$2

REM Highest difference peak  0.441,  deepest hole -0.289,  1-sigma level  0.067
Q1    1   0.5318  0.4412  0.5456  11.00000  0.05    0.44
Q2    1   0.4227  0.1931  0.6389  11.00000  0.05    0.31
Q3    1   0.7018  0.4843  0.6590  11.00000  0.05    0.29
Q4    1   0.4316  0.3028  0.5967  11.00000  0.05    0.27
Q5    1   0.6450  0.4250  0.5995  11.00000  0.05    0.27
Q6    1   0.7980  0.5731  0.6142  11.00000  0.05    0.26
Q7    1   0.7580  0.3604  0.6949  11.00000  0.05    0.22
Q8    1   0.8961  0.6620  0.5640  11.00000  0.05    0.22
Q9    1   0.7743  0.7659  0.5393  11.00000  0.05    0.22
Q10   1   0.6768  0.3778  0.6991  11.00000  0.05    0.21
Q11   1   1.1618  0.3520  0.6983  11.00000  0.05    0.20
Q12   1   0.5293  0.2542  0.6797  11.00000  0.05    0.20
Q13   1   0.1127  0.0273  0.5826  11.00000  0.05    0.19
Q14   1   0.2705  0.1741  0.5953  11.00000  0.05    0.19
Q15   1   1.0265  0.7565  0.6584  11.00000  0.05    0.19
Q16   1   1.0448  0.8326  0.6035  11.00000  0.05    0.19
Q17   1   0.2017  0.1247  0.5411  11.00000  0.05    0.18
Q18   1   0.8136  0.5525  0.5206  11.00000  0.05    0.18
Q19   1   1.1167  0.7046  0.6019  11.00000  0.05    0.18
Q20   1   1.2910  0.7980  0.6162  11.00000  0.05    0.18
;
_shelx_hkl_file
;
   0   0  -4  228.29    6.35
   0   0  -4  225.04    6.34
   0   0   4  206.99    6.29
   0   0   4  233.86    6.36
   0   0   5    3.46    1.01
   0   0  -5    4.00    0.95
   0   0  -5    3.06    0.92
   0   0   5    3.53    0.89
   0   0  -6  344.40    9.76
   0   0   6  339.30    9.79
   0   0   6  347.27    9.79
   0   0  -6  353.55    9.76
   0   0   7   23.60    2.50
   0   0   7   18.58    2.21
   0   0  -7   29.73    2.75
   0   0  -7   30.50    2.79
   0   0  -8  381.60   11.49
   0   0   8  383.59   11.49
   0   0  -8  392.33   11.42
   0   0   8  372.82   11.51
   0   0  -9    3.88    1.47
   0   0   9    2.19    1.11
   0   0  -9    1.68    0.83
   0   0   9    0.37    0.79
   0   0  10 1630.27   36.80
   0   0  10 1690.88   36.76
   0   0 -10 1690.37   36.30
   0   0 -10 1614.36   36.65
   0   0 -11    3.27    1.62
   0   0  11    0.66    0.74
   0   0  11    2.82    1.42
   0   0 -11    1.14    0.90
   0   0 -12  168.32    8.21
   0   0  12  170.15    8.37
   0   0 -12  181.75    8.10
   0   0  12  168.90    8.43
   0   0 -13    1.35    1.17
   0   0  13    1.81    1.33
   0   0  13    0.63    0.90
   0   0 -13    0.50    0.89
   0   0 -14  318.45   12.95
   0   0  14  346.01   13.45
   0   0 -14  324.62   12.24
   0   0 -15    4.22    1.48
   0   0 -16  549.20   17.81
   0   0 -17    2.43    1.55
   0   0 -18  236.69   11.40
   0   0 -19    2.42    1.77
   0   0 -20  259.61   12.48
   0   0 -21    3.16    1.70
   0   0 -22  424.80   17.27
   0   0 -23    6.82    2.64
   0   0 -24  403.46   17.33
   0  -1   2  220.53    7.28
   0   1  -2  195.66    5.61
   0  -1   3  624.38   14.13
   0   1  -3  618.05   14.09
   0  -1  -3  613.50   14.45
   0   1   3  618.08   14.59
   0   1   3  644.53   13.93
   0   1   4  366.74   10.04
   0  -1  -4  362.50    8.29
   0  -1   4  358.17    9.82
   0   1   4  362.23    9.32
   0   1  -4  368.62    9.69
   0  -1  -4  336.10    9.66
   0  -1   5 1376.31   29.07
   0   1  -5 1397.06   28.88
   0  -1  -5 1351.63   26.91
   0   1   5 1372.39   29.08
   0   1   5 1364.79   27.27
   0  -1  -5 1350.49   28.88
   0  -1  -6  384.05    9.68
   0   1   6  378.58   11.31
   0   1  -6  405.10   11.27
   0  -1   6  406.75   11.63
   0  -1  -6  391.95   11.27
   0   1   6  381.37    9.97
   0  -1  -7  926.54   22.24
   0  -1   7  952.19   22.77
   0  -1   7  966.82   21.37
   0   1   7  931.31   20.86
   0  -1  -7  941.10   20.52
   0   1   7  961.57   22.70
   0   1  -7  950.77   22.22
   0  -1   8  854.79   19.80
   0  -1  -8  821.95   19.05
   0   1   8  840.92   21.07
   0   1  -8  820.12   20.52
   0  -1  -8  825.85   20.67
   0  -1   8  821.74   21.12
   0   1   8  827.52   19.38
   0   1  -9 2645.00   53.52
   0   1   9 2627.44   54.38
   0  -1   9 2578.82   52.51
   0  -1  -9 2568.22   51.70
   0  -1  -9 2609.60   53.64
   0  -1   9 2601.07   54.33
   0   1   9 2584.30   52.04
   0  -1  10 1101.74   25.80
   0   1  10 1063.30   25.63
   0   1  10 1110.22   27.45
   0  -1 -10 1127.05   25.24
   0   1 -10 1134.34   26.83
   0  -1  10 1120.81   27.81
   0  -1 -10 1059.68   26.60
   0  -1 -11 1149.17   26.24
   0   1  11 1091.73   26.67
   0   1  11 1145.16   28.57
   0  -1  11 1150.62   28.77
   0   1 -11 1129.95   27.72
   0  -1  11 1097.42   26.77
   0  -1 -11 1137.19   28.03
   0  -1 -12    9.17    1.57
   0  -1  12   12.01    2.30
   0   1  12   11.02    2.34
   0   1 -12   13.75    2.29
   0  -1 -12   12.03    2.31
   0   1  12   11.51    2.04
   0   1 -12   11.84    1.29
   0  -1  12    9.71    1.88
   0  -1 -13  163.60    7.51
   0  -1 -13  164.55    8.48
   0   1 -13  145.75    7.95
   0  -1  13  165.03    8.09
   0   1  13  147.98    7.69
   0   1 -13  143.35    5.36
   0   1  14   99.58    6.47
   0   1 -14  107.63    6.84
   0  -1 -14  103.77    6.89
   0   1 -14   95.74    4.32
   0  -1  14  109.08    6.96
   0  -1 -14  101.53    6.01
   0  -1 -15  472.89   17.02
   0   1 -15  510.91   17.08
   0   1 -15  469.83   12.43
   0   1  15  473.37   16.55
   0  -1 -15  525.12   16.01
   0   1 -16   13.19    1.63
   0   1 -16   18.65    3.12
   0  -1 -16   12.92    2.69
   0  -1 -16   13.73    2.32
   0  -1 -17  158.39    8.32
   0   1 -17  156.30    5.72
   0  -1 -17  148.12    9.49
   0   1 -17  159.20    9.25
   0  -1 -18    2.64    2.01
   0  -1 -18    0.79    1.13
   0   1 -18    3.39    1.97
   0   1 -19  118.31    8.22
   0  -1 -19   99.00    8.00
   0  -1 -19  107.53    7.12
   0  -1 -20  179.88   11.33
   0  -1 -20  183.72    9.85
   0   1 -20  195.76   11.09
   0   1 -21  515.32   19.62
   0  -1 -21  475.46   19.84
   0  -1 -21  510.79   18.08
   0   1 -22    5.58    2.61
   0  -1 -22    5.25    2.21
   0   1 -23  432.76   18.24
   0  -1 -23  408.28   16.50
   0  -1 -24    6.51    2.52
   0  -1 -25  307.25   14.47
   0   2   0   25.58    2.67
   0  -2   0   25.81    2.08
   0   2   0   28.19    3.04
   0  -2   0   26.02    2.85
   0   2   0   25.53    2.23
   0  -2   0   21.20    2.34
   0  -2   1   42.80    2.85
   0   2  -1   45.93    3.74
   0  -2   1   44.46    3.45
   0   2   1   44.70    3.45
   0  -2  -1   44.66    3.28
   0  -2  -1   46.97    3.76
   0  -2  -1   41.98    3.31
   0   2   1   49.28    3.23
   0  -2   1   47.04    3.92
   0   2   1   46.63    3.88
   0  -2   1   43.32    2.57
   0   2  -1   47.29    3.26
   0   2  -2 1207.18   27.57
   0  -2  -2 1184.20   26.50
   0  -2   2 1203.91   27.67
   0   2   2 1253.04   28.55
   0  -2   2 1164.92   25.07
   0   2  -2 1157.15   28.46
   0  -2   2 1230.18   26.49
   0   2   2 1148.01   26.61
   0  -2  -2 1227.38   27.15
   0   2   2 1206.80   27.08
   0   2   2 1182.87   28.08
   0  -2  -3  637.53   16.67
   0  -2   3  625.13   17.50
   0   2   3  618.49   17.09
   0  -2  -3  632.19   16.02
   0  -2   3  596.30   17.04
   0  -2   3  631.30   15.27
   0   2   3  652.46   16.56
   0  -2   4 1884.11   43.17
   0   2   4 1970.70   41.41
   0  -2   4 1933.92   42.35
   0  -2   4 1926.47   39.35
   0  -2  -4 1890.48   40.37
   0   2   4 1944.91   40.02
   0  -2  -4 1886.68   39.60
   0   2   5  302.43    9.73
   0  -2  -5  288.18   10.15
   0  -2   5  300.73   12.70
   0   2   5  282.85   10.51
   0  -2   5  306.35    9.83
   0   2  -5  295.76    9.61
   0   2   6 1583.31   33.81
   0  -2   6 1606.65   34.61
   0  -2  -6 1591.34   31.12
   0   2   6 1556.37   35.42
   0  -2  -6 1506.12   34.89
   0   2  -6 1551.11   34.07
   0  -2   7  326.30   11.15
   0  -2  -7  308.86    8.40
   0  -2  -7  298.33   10.97
   0   2  -7  305.59   10.60
   0   2   7  306.68   10.20
   0   2   7  323.70   11.66
   0   2  -8  323.03   11.29
   0   2   8  313.28   10.53
   0  -2   8  311.50   11.40
   0  -2  -8  316.60    8.77
   0  -2  -8  295.16   11.14
   0   2   8  321.63   11.98
   0   2   9  161.58    7.19
   0  -2  -9  155.19    7.81
   0  -2  -9  162.78    5.91
   0   2  -9  146.13    7.39
   0  -2   9  160.54    8.03
   0   2   9  144.77    7.87
   0  -2  10  787.91   22.37
   0  -2 -10  814.99   22.30
   0   2 -10  778.86   21.73
   0   2  10  810.12   20.88
   0  -2 -10  794.57   18.85
   0   2  10  801.29   22.91
   0  -2  11   11.78    2.08
   0  -2 -11   10.99    1.60
   0  -2 -11   12.69    2.33
   0   2 -11   14.98    2.56
   0   2  11   14.69    2.42
   0   2 -12 1347.14   32.91
   0  -2 -12 1319.21   29.41
   0  -2  12 1299.39   30.91
   0   2  12 1321.93   31.54
   0  -2 -12 1304.95   33.10
   0   2 -13   56.03    5.25
   0  -2 -13   43.35    4.58
   0  -2 -13   52.86    3.88
   0  -2  13   46.29    4.38
   0   2 -14  837.53   24.23
   0  -2 -14  806.41   21.09
   0  -2 -14  825.13   24.55
   0  -2  14  803.57   22.57
   0  -2 -15   79.41    6.60
   0   2 -15   97.56    7.17
   0  -2 -15   80.49    5.20
   0  -2 -16 1276.50   35.29
   0  -2 -16 1356.51   32.02
   0   2 -16 1400.58   35.73
   0  -2 -17  272.47   10.95
   0   2 -17  302.58   13.82
   0  -2 -17  271.54   13.28
   0  -2 -18  284.74   11.40
   0  -2 -18  273.64   13.68
   0   2 -18  292.15   13.77
   0   2 -19   28.00    4.28
   0  -2 -19   29.02    3.47
   0  -2 -19   23.58    4.19
   0   2 -20  104.55    8.20
   0  -2 -20   82.09    6.07
   0  -2 -20   91.61    7.99
   0   2  20   85.21    6.73
   0  -2 -21   72.24    7.42
   0   2  21   68.05    6.25
   0  -2 -21   60.19    5.34
   0  -2 -22  203.81   10.31
   0  -2 -22  193.38   12.82
   0  -2 -23    4.96    2.83
   0  -2 -24   79.74    8.31
   0  -2 -25    7.49    2.99
   0   3   0    0.35    1.04
   0  -3   0    1.03    0.99
   0  -3   0    2.19    1.26
   0  -3   0    0.34    0.44
   0   3   0    0.85    0.88
   0   3   0    0.79    0.93
   0  -3   0   -0.06    0.89
   0  -3   1  846.94   22.64
   0  -3  -1  810.39   22.15
   0  -3  -1  863.99   24.89
   0   3   1  812.31   22.01
   0   3   1  862.21   24.97
   0  -3   1  862.79   20.69
   0  -3   1  837.24   19.74
   0   3  -1  860.40   22.07
   0   3   1  844.66   23.76
   0  -3   1  864.73   24.56
   0  -3  -1  860.78   22.69
   0   3  -1  841.57   24.40
   0  -3   2  958.87   25.09
   0   3   2  955.80   26.38
   0   3   2  936.16   24.32
   0  -3   2  947.93   22.01
   0  -3   2  983.26   26.89
   0   3  -2  935.13   24.30
   0  -3   2  955.14   22.95
   0  -3  -2  945.55   23.99
   0   3  -2  898.10   26.47
   0  -3  -2  964.29   24.56
   0   3   2  954.41   25.38
   0   3   3   31.28    3.90
   0  -3   3   31.97    3.29
   0  -3   3   16.77    2.20
   0   3   3   30.41    3.50
   0  -3   3   24.13    3.47
   0  -3  -3   36.88    4.12
   0  -3  -3   24.97    3.15
   0   3   3   27.08    3.82
   0   3  -3   22.83    3.32
   0  -3  -4  204.78    9.38
   0  -3   4  225.42   10.41
   0   3   4  225.06    9.81
   0   3   4  214.15   10.80
   0  -3  -4  217.75    9.13
   0  -3   4  229.03    8.53
   0  -3   4  218.39    9.69
   0   3   4  207.15   10.22
   0  -3  -5 1112.46   27.61
   0  -3  -5 1070.71   26.47
   0  -3   5 1058.79   28.73
   0  -3   5 1020.50   28.43
   0   3   5 1103.59   27.52
   0  -3   5 1069.07   25.82
   0   3   5 1057.84   28.77
   0  -3  -6    3.85    1.64
   0  -3  -6    2.67    1.76
   0  -3   6    1.67    1.17
   0  -3   6    1.79    1.64
   0   3   6    1.93    1.34
   0  -3   6    0.32    1.07
   0   3   6    3.07    1.78
   0  -3   7 3257.04   65.09
   0   3   7 3194.00   67.69
   0   3   7 3056.63   64.81
   0  -3  -7 3128.77   65.66
   0  -3   7 3101.31   68.79
   0  -3   7 3022.17   70.24
   0  -3  -8  139.86    8.12
   0  -3  -8  145.93    5.40
   0  -3   8  145.89    9.60
   0  -3   8  153.33   10.62
   0   3   8  145.36    7.74
   0   3   9  780.15   22.04
   0  -3   9  819.69   26.60
   0  -3  -9  767.00   23.03
   0  -3  -9  799.60   18.02
   0  -3   9  791.00   28.80
   0  -3 -10  107.65    4.73
   0  -3  10  109.16    9.31
   0  -3 -10  107.48    7.33
   0   3  10  100.44    6.52
   0  -3  10   91.59    9.38
   0  -3  10  113.99    4.65
   0  -3 -11  511.68   18.11
   0  -3 -11  521.06   13.78
   0   3  11  557.72   17.42
   0  -3  11  564.85   25.65
   0  -3 -12  119.66    7.97
   0   3  12  114.75    7.20
   0  -3 -12  114.20    5.34
   0  -3 -13  519.67   18.79
   0   3  13  503.19   17.03
   0  -3 -13  490.36   13.90
   0  -3 -14   84.18    6.93
   0  -3 -14   74.31    4.56
   0   3  14   72.49    5.85
   0   3  15  975.92   27.15
   0  -3 -15  952.82   29.02
   0  -3 -15  940.35   23.16
   0   3  16   31.04    4.39
   0  -3 -16   28.04    4.65
   0  -3 -16   22.67    2.56
   0  -3 -17 1176.96   28.18
   0  -3 -17 1170.61   34.24
   0   3  17 1167.42   31.79
   0   3  18  156.63    9.53
   0  -3 -18  142.54    7.24
   0  -3 -18  157.67   10.67
   0  -3 -19  125.00    9.66
   0  -3 -19  115.75    6.65
   0   3  19  127.48    8.70
   0   3  20   92.66    7.53
   0  -3 -20   93.72    8.48
   0  -3 -21   88.30    8.51
   0   3  21   85.13    7.39
   0  -3 -22    7.17    3.54
   0  -3 -23  119.73   10.35
   0  -3 -24    8.24    3.71
   0  -3 -25   85.96    9.29
   0  -3  25  142.20   22.88
   0  -3  26   10.62    9.94
   0   4   0 1002.15   30.02
   0  -4   0 1015.25   27.48
   0  -4   0  971.59   23.54
   0  -4   0 1050.42   28.03
   0   4   0  933.12   26.11
   0  -4   0 1013.52   30.07
   0   4  -1  100.12    8.20
   0  -4  -1  106.67    7.22
   0  -4   1  106.30    8.19
   0  -4   1   99.81    5.58
   0  -4   1  108.32    5.64
   0   4  -1   98.48    6.56
   0   4   1   99.60    6.59
   0   4   1   95.99    7.79
   0  -4   1  104.04    7.08
   0  -4  -1  101.32    6.91
   0   4   1   99.04    7.89
   0  -4   1  103.62    7.26
   0   4  -2   64.82    5.37
   0   4  -2   57.18    6.40
   0  -4  -2   60.42    5.43
   0  -4   2   71.12    4.63
   0  -4  -2   65.62    5.47
   0   4   2   71.46    5.76
   0  -4   2   62.58    6.28
   0  -4   2   71.31    4.75
   0   4   2   62.03    6.14
   0   4   3  157.90    9.52
   0  -4   3  163.26    7.78
   0   4   3  146.64    8.68
   0   4  -3  162.66    9.08
   0  -4  -3  154.70    8.48
   0  -4   3  155.71    7.41
   0  -4   3  154.44    9.98
   0  -4  -3  149.63    8.61
   0  -4  -4  398.34   15.49
   0  -4  -4  406.93   14.87
   0   4   4  394.26   15.71
   0  -4   4  418.92   14.16
   0  -4   4  435.72   17.83
   0  -4   4  407.62   13.66
   0   4   4  411.90   16.41
   0  -4   5    0.60    1.14
   0   4   5   -0.64    0.73
   0   4   5    2.02    1.74
   0  -4   5   -0.18    0.67
   0  -4  -5    0.09    0.93
   0   4   6 1516.28   37.82
   0  -4  -6 1496.44   37.25
   0   4   6 1385.25   38.26
   0  -4   6 1493.32   37.98
   0   4   7   56.48    5.53
   0  -4  -7   59.64    5.60
   0  -4   7   52.89    5.74
   0   4   8 2210.74   51.29
   0  -4   8 2175.06   55.13
   0  -4  -8 2205.18   51.28
   0   4   9    9.21    2.69
   0  -4  -9   13.31    3.03
   0  -4   9   13.44    3.44
   0  -4  -9   14.18    1.70
   0  -4 -10  744.16   17.46
   0  -4  10  687.34   27.81
   0   4  10  750.22   23.59
   0  -4 -10  752.46   24.24
   0  -4  11   35.08    6.19
   0   4  11   38.34    4.73
   0  -4 -11   38.64    4.88
   0  -4 -11   37.45    2.67
   0  -4 -12    5.92    2.72
   0  -4  12    4.59    1.63
   0  -4 -12    3.86    1.01
   0   4  12    4.52    2.20
   0  -4  12    3.51    2.74
   0   4  13  402.69   16.36
   0  -4 -13  407.34   17.15
   0  -4 -13  376.32   11.00
   0  -4  13  419.73   23.78
   0  -4 -14  432.17   12.36
   0   4  14  479.05   18.03
   0  -4 -14  436.34   18.63
   0  -4  14  466.24   26.47
   0  -4 -15   81.11    4.56
   0  -4  15   93.31   12.15
   0   4  15   79.90    7.11
   0  -4 -15   85.82    8.03
   0  -4 -16  714.61   25.69
   0   4  16  735.06   24.31
   0  -4 -16  698.40   18.12
   0  -4  16  815.35   39.29
   0  -4 -17  144.86   10.67
   0  -4  17  170.36   18.09
   0   4  17  137.12    9.65
   0  -4 -18  196.16   12.84
   0  -4  18  251.32   23.06
   0   4  18  202.69   11.91
   0  -4  19   83.06   13.85
   0   4  19   74.89    7.30
   0  -4 -19   65.59    7.41
   0   4  20  176.12   11.40
   0  -4 -20  168.76   12.25
   0  -4  21   22.31    8.16
   0  -4 -21   16.40    4.12
   0  -4 -22  153.47   12.25
   0  -4  22  233.17   26.10
   0  -4 -23    2.75    2.49
   0  -4  23   19.61    9.90
   0  -4  24  165.30   23.63
   0  -4 -24  120.19   11.21
   0  -4  25   32.64   11.83
   0  -5   0    2.06    2.08
   0   5   0   -0.15    0.90
   0  -5   0    1.53    0.94
   0   5   0    1.71    2.19
   0  -5   0   -1.52    1.54
   0  -5  -1  876.81   22.44
   0  -5  -1  901.54   26.91
   0  -5   1  875.87   27.16
   0   5   1  914.16   30.49
   0  -5   1  846.73   29.47
   0   5   1  855.12   26.25
   0   5  -1  870.79   25.78
   0  -5   1  876.83   23.18
   0   5  -1  881.70   31.11
   0   5   2    5.19    2.85
   0  -5   2    8.26    1.82
   0  -5   2    5.83    2.37
   0  -5   2    9.46    2.91
   0   5  -2    5.31    1.88
   0  -5   2    7.61    1.63
   0  -5  -2   11.18    2.05
   0  -5  -2   13.61    3.15
   0   5   2    3.70    1.51
   0  -5   3 1173.18   35.66
   0   5   3 1145.97   35.18
   0  -5   3 1158.60   28.47
   0   5  -3 1154.61   32.15
   0  -5  -3 1111.40   31.79
   0   5   3 1077.79   32.60
   0   5   4    4.30    2.96
   0  -5   4    1.17    1.49
   0  -5  -4    3.66    2.09
   0   5   4    1.69    1.32
   0  -5   4    3.13    1.26
   0   5   5 1068.56   32.67
   0  -5   5 1129.97   29.25
   0   5   5 1139.28   34.07
   0  -5   5 1103.34   35.28
   0  -5  -5 1076.93   31.43
   0  -5  -6  118.93    8.54
   0  -5   6  149.04   11.37
   0  -5   6  117.85    7.67
   0   5   6  120.93    9.34
   0   5   6  115.57    9.20
   0   5   7  174.46   11.64
   0  -5  -7  200.43   11.35
   0   5   7  192.60   11.96
   0  -5   7  194.37   10.80
   0  -5  -8   50.89    5.69
   0  -5   8   47.75    5.64
   0   5   8   35.44    5.41
   0  -5   9  247.59   14.25
   0  -5  -9  216.43   12.27
   0   5   9  203.88   12.47
   0   5  10   11.08    3.43
   0  -5 -10   12.40    1.67
   0  -5  10   12.38    3.69
   0  -5 -10   10.56    3.11
   0  -5 -11   52.37    6.03
   0   5  11   57.79    6.65
   0  -5 -11   46.51    2.99
   0  -5  11   51.05    7.14
   0   5  12  113.26    9.10
   0  -5 -12  112.30    4.79
   0  -5 -12  108.69    8.96
   0  -5  12  131.14   12.28
   0  -5  13  135.79   12.95
   0  -5 -13  143.51   10.64
   0   5  13  134.80   10.14
   0  -5  14   68.79    9.92
   0  -5 -14   58.71    7.12
   0   5  14   47.05    6.42
   0   5  15  447.65   19.79
   0  -5 -15  465.63   20.68
   0  -5  15  467.92   27.58
   0  -5  16   30.84    7.80
   0   5  16   31.06    5.23
   0  -5 -16   23.92    4.84
   0  -5 -17  282.60   16.20
   0  -5  17  319.08   24.69
   0   5  17  290.60   15.87
   0   5  18   49.51    6.57
   0  -5  18   46.33    9.98
   0  -5 -18   50.17    6.91
   0   5  19  295.89   16.38
   0  -5 -19  286.61   16.92
   0  -5  19  352.67   28.09
   0  -5 -20   12.27    3.83
   0  -5  20    7.77    6.69
   0  -5 -21   62.85    7.95
   0  -5 -22   41.96    6.56
   0   6   0  709.33   24.08
   0   6   0  720.94   30.08
   0  -6   0  731.18   25.21
   0  -6   1   62.07    6.85
   0  -6  -1   61.59    5.04
   0  -6   1   62.42    7.62
   0   6   1   54.78    5.98
   0   6   1   68.58    8.88
   0   6  -1   66.87    6.27
   0  -6  -1   64.65    6.72
   0   6  -2  540.91   20.37
   0   6   2  606.17   26.19
   0  -6  -2  570.37   21.47
   0  -6   2  548.85   21.68
   0  -6  -2  551.70   17.01
   0   6   2  512.27   20.83
   0  -6   2  561.40   24.66
   0   6   3   73.66    7.40
   0  -6  -3   83.83    5.63
   0  -6  -3   82.11    7.58
   0  -6   3   81.24    9.04
   0   6   3   79.58    9.22
   0   6  -3   83.39    7.25
   0  -6   3   84.97    8.03
   0  -6   4  230.11    9.95
   0  -6   4  263.03   14.40
   0   6   4  251.39   14.36
   0  -6  -4  220.93    9.30
   0   6   4  229.78   15.00
   0  -6   4  231.68   15.42
   0  -6  -4  239.75   13.21
   0   6   5   84.05    9.05
   0  -6  -5   89.70    7.95
   0  -6  -5   92.56    5.71
   0   6   5   84.71    8.34
   0  -6   5   83.52    9.29
   0  -6   5   98.12    6.49
   0  -6   6  533.49   24.50
   0  -6  -6  529.61   21.06
   0   6   6  481.12   21.84
   0   6   6  536.77   23.72
   0  -6   6  523.52   17.98
   0  -6   7   47.25    5.03
   0   6   7   37.50    6.81
   0  -6   7   40.26    6.78
   0  -6  -7   53.80    6.40
   0  -6   8  494.89   18.97
   0  -6   8  527.90   25.14
   0   6   8  487.20   22.38
   0  -6  -8  471.77   20.06
   0  -6   9   16.68    3.59
   0   6   9   15.48    4.36
   0  -6  -9   21.94    4.45
   0  -6   9   15.24    4.56
   0  -6  10  282.00   15.34
   0   6  10  273.81   16.11
   0  -6 -10  246.67   14.59
   0   6  11   10.38    3.58
   0  -6  11    3.01    2.24
   0  -6 -11    6.69    3.14
   0  -6 -12  266.48   15.37
   0   6  12  254.90   15.95
   0  -6  12  297.00   18.17
   0   6  13  141.24   12.03
   0  -6 -13  158.62   11.88
   0   6  14   20.38    4.78
   0  -6 -14   10.78    3.36
   0   6  15   10.55    3.43
   0  -6 -15   14.56    4.13
   0  -6 -16   21.06    4.67
   0   6  16   28.52    5.48
   0  -6 -17   53.57    7.45
   0   6  17   42.85    6.70
   0  -6 -18  170.51   13.49
   0   6  18  192.02   14.21
   0  -6 -19   10.38    3.87
   0  -7   0    7.41    3.45
   0   7   1  793.06   35.19
   0  -7   1  821.69   28.93
   0  -7  -1  821.83   28.95
   0  -7   2   10.65    3.48
   0   7   2   17.69    5.25
   0  -7   2    9.57    4.54
   0  -7  -2   17.71    4.34
   0  -7  -3  224.28   13.78
   0  -7   3  256.65   14.94
   0   7   3  243.27   17.83
   0  -7   3  221.61   15.97
   0  -7  -4  334.84   16.98
   0   7   4  344.14   20.91
   0  -7   4  319.20   17.06
   0  -7   4  299.39   18.81
   0  -7  -5   19.29    4.38
   0  -7   5   21.05    5.19
   0   7   5   24.82    6.21
   0  -7   5   23.12    4.40
   0  -7  -6   72.20    7.66
   0  -7   6   72.78    8.02
   0   7   6   76.84    9.81
   0  -7   6   66.46    9.44
   0  -7   7  351.20   21.32
   0  -7  -7  385.32   18.64
   0  -7   7  369.01   19.20
   0   7   7  370.70   21.60
   0  -7  -8   23.08    4.96
   0  -7   8   28.54    6.39
   0   7   8   24.38    5.53
   0  -7  -9  494.25   22.25
   0  -7   9  513.15   27.26
   0   7   9  470.15   24.44
   0  -7  10    6.71    4.48
   0   7  10    6.10    3.61
   0  -7 -10    1.23    2.73
   0  -7 -11  128.17   11.16
   0   7  11  115.42   12.03
   0  -7  11  157.52   15.11
   0  -7  12    0.33    2.85
   0   7  12    5.75    3.35
   0  -7 -12    0.46    2.18
   0   7  13  114.07   11.72
   0  -7 -13  125.84   11.15
   0   7  14    9.43    4.27
   0  -7 -14   25.76    5.79
   0  -7 -15  171.00   13.53
   0   7  15  164.13   14.48
   0   7  16    8.69    4.44
   0   7  17  144.85   13.60
   0  -8   0  184.39   13.28
   0  -8   1   27.25    5.49
   0  -8  -1   22.11    4.87
   0  -8   2  177.69   12.97
   0  -8  -2  169.80   12.69
   0   8   3    2.26    3.59
   0  -8   3    0.83    2.22
   0  -8  -3    5.36    3.36
   0  -8   3    6.06    3.98
   0  -8   4   56.04    9.06
   0  -8   4   58.01    7.29
   0   8   4   68.24   10.23
   0  -8  -4   62.82    7.94
   0  -8   5   17.60    4.31
   0  -8   5   20.12    5.53
   0   8   5   14.92    5.22
   0  -8  -5   19.97    4.94
   0   8   6   66.09   10.68
   0  -8  -6   74.87    8.38
   0  -8   6   67.15    8.10
   0  -8   6   69.01    9.83
   0   8   7    3.93    4.11
   0  -8  -7    6.56    3.11
   0  -8   7    8.00    3.60
   0  -8   7    0.85    3.35
   0  -8   8  272.62   20.24
   0   8   8  272.48   20.79
   0  -8   8  281.89   17.36
   0  -8  -8  262.76   16.59
   0  -8   9   10.11    3.74
   0  -8  -9    8.47    3.87
   0  -8   9   14.98    5.77
   0   8   9   20.33    6.09
   0   8  10  112.77   12.91
   0  -8  10  139.55   12.45
   0  -8  10  127.17   14.35
   0  -8 -10  117.88   11.18
   0  -8 -11    2.81    2.34
   0  -8  11    3.66    3.75
   0  -8  11    4.01    2.90
   0   8  11   11.11    6.04
   0   8  12  164.92   15.90
   0   8  13    9.50    4.81
   0   8  14  300.17   21.58
   0   8  15   43.35    8.98
   0   8  16  114.95   13.72
   0  -9   0    4.91    3.51
   0  -9   1   32.24    5.90
   0  -9  -1   37.01    6.32
   0  -9   2    7.46    3.17
   0  -9  -2    3.31    2.91
   0  -9  -3   68.96    8.81
   0  -9   3   68.13    8.61
   0  -9  -4   12.71    4.42
   0  -9   4    7.05    3.74
   0  -9   5  195.85   14.50
   0  -9   6    6.92    3.84
   0  -9   7   82.70    9.49
   0  -9   8    4.74    3.05
   1   0 -20   21.12    4.73
   1   0 -19    4.79    3.17
   1   0 -18  255.38   16.14
   1   0 -17    0.73    2.65
   1   0 -16  186.22   13.15
   1   0 -15    3.34    2.72
   1   0 -14  225.68   14.14
  -1   0  14  237.78   10.07
  -1   0  13    0.72    0.75
   1   0 -13    2.36    2.73
   1   0 -12 3703.36   83.81
  -1   0  12 3693.14   73.33
  -1   0  11    1.29    0.95
   1   0 -11    7.65    3.23
   1   0 -10 3102.41   72.41
  -1   0  10 3357.40   83.99
  -1   0  10 3286.68   66.11
  -1   0  10 3017.99   61.98
   1   0  -9    2.70    2.22
  -1   0   9    1.27    0.91
  -1   0   9    1.04    1.50
  -1   0   9    6.09    3.69
  -1   0   8   55.11    7.78
  -1   0   8   52.91    4.34
   1   0  -8   52.20    5.80
  -1   0   7    0.19    1.11
   1   0  -7    0.92    1.93
  -1   0   7    2.57    2.94
   1   0  -6  974.83   29.41
  -1   0   6 1087.25   34.55
  -1   0   6 1011.51   24.60
   1   0  -5    0.91    1.37
  -1   0   5    0.49    0.90
  -1   0   5   -0.88    1.43
  -1   0   4  270.97   12.54
  -1   0   4  254.74   13.78
   1   0  -4  310.83   15.56
   1   0  -4  228.72   11.84
   1   0  -3    0.62    1.28
   1   0  -3    3.13    1.81
  -1   0   3    0.73    1.51
  -1   0   3   -0.07    1.66
   1   0  -2 3841.56   81.05
  -1   0   2 3900.84   81.98
  -1   0   2 3723.81   82.04
  -1   0   1    5.46    2.98
  -1   0   1   -0.65    1.22
   1   0  -1   -0.32    1.10
   1   0  -1    5.83    2.61
   1   0   0 3829.66   79.73
  -1   0   0 3806.44   79.17
  -1   0   0 3892.81   81.04
   1   0   0 3816.54   80.42
   1   0   1    1.41    1.98
  -1   0  -1   -0.66    1.11
   1   0   1    1.09    1.35
  -1   0  -1   -1.12    1.31
  -1   0  -2    6.63    2.07
   1   0   2    2.37    1.98
  -1   0  -2    4.86    1.41
   1   0   2    6.86    1.84
   1   0   3   -0.50    0.68
  -1   0  -3   -0.26    1.08
   1   0   3    0.87    1.55
  -1   0  -3    0.30    1.07
   1   0   4 2553.65   54.65
  -1   0  -4 2404.14   50.66
  -1   0  -4 2427.47   55.17
   1   0   5   -0.06    0.71
  -1   0  -5   -0.06    0.38
  -1   0  -5    1.93    1.89
  -1   0  -5    0.49    0.63
  -1   0  -6  151.65    5.03
  -1   0  -6  155.76    7.30
   1   0   6  157.37    9.02
  -1   0  -6  150.89    8.86
  -1   0  -7    0.34    0.49
  -1   0  -7   -0.17    0.72
  -1   0  -7    2.14    1.60
  -1   0  -8  111.84    7.70
  -1   0  -8  114.16    4.61
   1   0   8  115.40    5.36
  -1   0  -8  125.11    6.69
   1   0   9    0.06    0.50
  -1   0  -9    0.61    0.72
  -1   0  -9   -0.21    0.67
   1   0   9    0.36    0.70
  -1   0 -10  604.37   15.54
   1   0  10  627.40   16.65
   1   0  10  610.68   19.87
  -1   0 -10  660.54   19.28
  -1   0 -11    0.84    0.76
  -1   0 -11    0.22    0.66
   1   0  11   -0.21    0.58
  -1   0 -12  893.46   25.24
  -1   0 -12  889.81   21.81
   1   0  12  904.56   22.76
  -1   0 -13    1.99    1.32
   1   0  13    0.69    1.02
  -1   0 -13    0.40    1.01
   1   0  13    0.37    0.49
  -1   0 -14  888.07   25.31
  -1   0 -14  856.50   21.87
   1   0  14  802.57   18.15
   1   0  14  831.30   22.78
   1   0  15    1.90    0.90
  -1   0 -15   -1.77    1.26
  -1   0 -15    2.67    1.63
   1   0  15    2.51    1.63
  -1   0 -16  245.14   10.29
  -1   0 -16  250.60   12.52
   1   0  16  225.18   10.59
  -1   0 -17    0.82    1.55
   1   0  17    1.90    1.63
  -1   0 -17    0.39    1.21
  -1   0 -18 1202.46   34.15
  -1   0 -18 1143.85   30.35
  -1   0 -19    5.65    2.66
  -1   0 -20  797.03   27.10
  -1   0 -21   -0.22    1.54
  -1   0 -22  247.89   14.12
  -1   0 -23    0.22    1.74
  -1   0 -24  253.80   14.86
  -1   0 -25    4.14    2.61
  -1   0 -26   47.57    6.44
  -1   0 -27    1.59    2.17
  -1  -1  25  235.74   29.90
  -1  -1  24    6.47    8.23
  -1  -1  23  341.67   33.69
  -1  -1  22   13.09    7.93
  -1  -1  21  181.70   22.85
   1  -1 -21  153.46   13.69
  -1  -1  20   16.70    8.95
   1  -1 -20    6.83    4.05
  -1  -1  19  113.49   16.97
   1   1 -19  114.34    9.42
  -1  -1  18    7.26    6.16
   1   1 -18    4.22    3.13
  -1  -1  17  436.41   30.97
   1   1 -17  371.40   18.05
   1   1 -16   28.03    5.02
  -1  -1  16   35.15    8.98
  -1   1  16   32.92    3.66
  -1  -1  15  483.42   30.04
   1  -1 -15  406.47   17.14
   1   1 -15  418.35   18.25
  -1   1  15  444.71   14.56
   1  -1 -14   94.95    7.52
  -1   1  14   97.95    5.83
   1   1 -14   97.02    8.05
  -1  -1  14   94.92   12.77
  -1   1  13  545.52   15.65
   1  -1 -13  512.64   18.82
  -1  -1  13  603.11   31.69
   1   1 -13  524.41   20.41
  -1  -1  12   -3.32    3.35
  -1   1  12    2.37    1.04
   1   1 -12    3.26    2.44
   1  -1 -12    1.99    1.90
   1   1 -11  952.26   29.03
  -1   1  11  929.66   22.02
  -1  -1  11  946.57   24.31
  -1  -1  11  981.77   39.14
   1  -1 -11  972.30   26.99
  -1  -1  10   38.27    7.37
  -1  -1  10   40.05    4.03
   1  -1 -10   42.26    4.43
  -1  -1  10   46.53    3.86
   1   1 -10   43.50    5.29
  -1   1  10   41.07    2.88
  -1  -1   9  865.63   21.51
   1  -1  -9  825.89   23.05
  -1   1   9  847.78   22.80
   1   1  -9  836.36   26.06
  -1  -1   9  866.11   33.56
  -1   1   9  750.47   18.03
   1   1  -8  129.23    8.90
  -1   1   8   94.35    4.07
  -1  -1   8   97.76   10.06
  -1  -1   8  120.77    8.14
   1  -1  -8  119.44    6.93
  -1   1   8  109.63    6.45
  -1  -1   7 1301.96   40.76
  -1  -1   7 1237.55   33.54
   1   1  -7 1254.58   34.60
   1  -1  -7 1259.75   30.23
  -1   1   7 1222.84   29.55
  -1   1   6  500.11   21.78
  -1  -1   6  449.61   17.29
   1   1  -6  493.36   23.15
  -1   1   6  446.07   13.85
   1   1  -6  436.35   17.51
   1  -1  -6  461.95   14.29
  -1  -1   6  428.12   20.13
   1   1  -5  975.28   33.29
  -1   1   5  909.70   22.75
   1   1  -5  934.48   27.78
  -1  -1   5  956.40   31.43
  -1  -1   5  914.92   27.00
   1  -1  -5  975.30   23.30
  -1   1   5  969.64   31.00
  -1  -1   4    4.98    2.16
  -1   1   4    2.97    2.00
   1   1  -4    5.17    2.12
   1  -1  -4    7.16    1.88
   1   1  -4    3.88    2.22
  -1   1   4    4.99    1.51
  -1  -1   4    5.58    2.21
   1   1  -3 4351.14   93.85
  -1  -1   3 4473.68   93.29
   1  -1  -3 4605.92   92.47
  -1  -1   3 4350.04   89.97
  -1   1   3 4344.67   90.76
   1   1  -3 4458.87   90.59
   1  -1  -3 4272.10   82.44
  -1   1   3 4101.08   82.07
  -1   1   2 8786.81  169.86
   1  -1  -2 9348.28  170.29
  -1   1   2 9230.64  177.62
   1  -1  -2 9999.00  179.67
   1   1  -2 9406.37  181.93
   1  -1  -2 9710.88  180.77
  -1  -1   2 9128.09  178.81
  -1  -1   2 9572.49  180.90
  -1  -1   1 5226.90  106.67
   1   1  -1 5088.46  106.96
  -1   1   1 5334.19   95.28
   1  -1  -1 5229.71  103.39
   1  -1  -1 5228.87   96.59
   1  -1  -1 5407.36  106.76
  -1  -1   1 5334.45  106.18
  -1  -1   1 4997.83   97.30
  -1   1   1 4913.04   96.22
  -1   1   1 5308.70  103.10
  -1  -1   0  322.43   13.85
  -1   1   0  327.29   12.03
  -1   1   0  314.50    8.50
   1  -1   0  323.73   14.16
  -1  -1   0  326.40   14.78
   1   1   0  320.30    9.61
   1  -1   0  336.31    8.11
   1  -1   0  325.63   12.35
   1   1   0  315.39   14.24
  -1   1  -1   11.29    1.82
  -1  -1  -1    8.99    2.16
   1  -1   1    9.83    1.92
   1   1   1    8.17    2.07
   1   1   1    9.92    1.38
   1  -1   1   12.69    2.60
  -1  -1  -1   12.94    3.45
  -1   1  -1   11.47    1.22
  -1   1  -1   10.74    1.51
   1  -1   2  802.08   20.93
  -1   1  -2  764.09   19.87
  -1   1  -2  730.23   22.35
   1  -1   2  746.65   22.78
  -1  -1  -2  698.40   22.42
  -1   1  -2  741.04   14.96
   1   1   2  729.31   23.66
  -1   1  -2  723.46   17.11
  -1   1  -2  742.88   18.23
  -1   1  -3  115.96    7.53
   1  -1   3  114.30    7.35
   1   1   3  110.40    8.07
   1  -1   3  119.13    6.65
  -1   1  -3  124.28    6.30
  -1   1  -3  113.42    4.59
  -1  -1  -3  117.34    7.72
  -1   1  -3  114.06    5.55
  -1  -1  -4   97.97    7.12
   1   1   4  108.19    7.81
  -1   1  -4  114.96    7.41
   1  -1   4  113.92    7.19
  -1   1  -4  108.23    4.47
   1  -1   4  100.35    5.58
  -1   1  -4  104.42    5.45
   1  -1   4  110.22    6.35
   1   1   5  231.98   11.99
   1  -1   5  230.02    9.86
  -1  -1  -5  224.88    8.58
   1  -1   5  230.67   10.50
  -1   1  -5  232.46    8.84
  -1  -1  -5  215.51    6.40
  -1   1  -5  243.88    7.39
   1  -1   5  232.89    9.25
  -1   1  -5  236.35   11.04
   1   1   6    6.01    2.03
  -1   1  -6    6.44    1.19
   1  -1   6    6.25    1.71
  -1  -1  -6    7.34    0.77
  -1   1  -6    5.70    1.39
   1  -1   6    8.16    1.68
  -1  -1  -6    6.28    1.44
   1  -1   6    5.43    1.68
  -1   1  -6    7.19    1.90
   1  -1   6    7.19    1.02
  -1   1  -7  552.00   16.36
  -1  -1  -7  531.51   14.91
   1  -1   7  545.23   12.78
  -1   1  -7  559.52   18.57
   1   1   7  555.31   20.40
  -1  -1  -7  549.65   16.65
   1  -1   7  535.92   16.84
  -1  -1  -8   28.66    2.78
  -1  -1  -8   24.18    2.96
   1   1   8   27.64    4.22
   1  -1   8   22.08    1.82
  -1   1  -8   18.97    3.20
   1  -1   8   24.71    3.21
   1  -1   8   26.15    1.63
  -1   1  -8   23.03    2.95
   1  -1   9 1914.53   36.84
   1   1   9 1790.09   42.64
  -1   1  -9 1952.35   44.49
  -1  -1  -9 1882.58   40.17
  -1  -1  -9 1925.91   42.64
  -1   1  -9 1917.10   43.10
   1  -1   9 1781.28   43.23
   1  -1   9 1892.22   37.42
   1  -1  10  245.56    7.54
   1   1  10  215.93   10.11
  -1  -1 -10  238.24   10.37
  -1   1 -10  253.10   10.93
  -1  -1 -10  244.33    9.28
   1  -1  10  236.01    7.33
  -1   1 -10  253.70   11.36
   1  -1  11  475.10   12.26
  -1  -1 -11  452.96   14.14
   1  -1  11  466.58   12.31
  -1   1 -11  461.82   16.38
  -1   1 -11  494.33   16.79
   1   1  11  450.85   15.59
  -1  -1 -11  471.24   15.82
  -1  -1 -12   54.18    4.84
   1  -1  12   55.98    3.64
   1   1  12   52.40    4.87
  -1   1 -12   57.47    5.30
  -1   1 -12   60.20    5.29
  -1  -1 -12   58.60    4.44
   1  -1  12   57.64    3.52
  -1   1 -13 1129.00   30.84
   1   1  13 1065.64   29.03
   1  -1  13 1118.18   25.38
   1  -1  13 1140.59   24.91
  -1  -1 -13 1116.19   27.41
  -1   1 -13 1111.20   29.13
  -1  -1 -13 1141.96   29.67
   1   1  13 1064.77   21.74
  -1  -1 -14  183.86    9.76
  -1   1 -14  193.70   10.51
   1  -1  14  171.80    7.52
   1   1  14  169.03    5.11
  -1  -1 -14  180.59    8.79
   1  -1  14  193.23    7.43
   1   1  14  169.45    9.46
  -1   1 -14  183.52    9.39
  -1   1 -15 1309.51   32.97
  -1  -1 -15 1332.31   32.75
  -1  -1 -15 1347.34   34.95
   1   1  15 1279.66   26.32
  -1   1 -15 1410.11   36.32
   1  -1  15 1371.55   29.99
   1  -1  15 1319.33   30.88
  -1  -1 -16   27.48    3.61
  -1   1 -16   29.06    4.55
  -1  -1 -16   25.11    3.65
   1   1  16   25.54    1.96
  -1   1 -16   28.31    3.59
   1  -1  16   29.25    2.96
   1  -1  16   26.98    3.37
  -1   1 -17  102.00    6.42
   1  -1  17  101.26    6.45
  -1  -1 -17  111.42    8.14
   1   1  17  100.00    4.07
  -1  -1 -17  101.02    7.09
  -1   1 -17  104.30    8.20
  -1   1 -18   71.90    6.86
  -1  -1 -18   69.12    6.45
  -1  -1 -18   69.58    5.82
  -1   1 -19  131.51    9.77
  -1  -1 -19  122.67    9.03
  -1  -1 -19  129.32    8.45
  -1  -1 -20   31.57    4.94
  -1  -1 -20   27.81    3.96
  -1   1 -20   32.59    4.80
  -1   1 -21  340.85   16.75
  -1  -1 -21  324.08   14.89
  -1  -1 -21  335.49   16.16
  -1  -1 -22   50.87    6.17
  -1  -1 -22   40.81    5.17
  -1   1 -22   49.95    6.32
  -1   1 -23  277.02   15.43
  -1  -1 -23  286.91   14.29
  -1  -1 -23  277.82   15.05
  -1  -1 -24   76.05    7.81
  -1   1 -24   76.37    8.15
  -1   1 -25  252.27   15.10
  -1  -1 -25  253.63   14.68
  -1   1 -26    2.90    2.83
  -1  -1 -26    1.69    1.90
  -1  -1 -27   87.18    8.96
  -1  -2  25   26.61   11.45
  -1  -2  24  171.06   24.12
  -1  -2  23    8.31    7.06
  -1  -2  22  417.49   35.96
  -1  -2  21    7.78    6.50
   1  -2 -21    5.51    3.09
   1  -2 -20   43.20    6.04
  -1  -2  20   48.44   11.92
   1  -2 -19   46.61    6.07
  -1  -2  19   61.98   12.77
  -1  -2  18  559.58   35.36
   1  -2 -18  414.99   18.77
  -1   2  17   27.09    3.05
   1  -2 -17   29.93    4.86
  -1  -2  17   40.52    9.67
  -1  -2  16  766.99   39.92
   1  -2 -16  687.08   24.97
  -1   2  16  748.46   19.66
   1  -2 -15   50.28    5.67
  -1   2  15   50.04    3.79
  -1  -2  15   63.09   10.65
   1  -2 -14  441.62   17.49
  -1  -2  14  433.21   26.74
  -1   2  14  422.83   12.57
  -1  -2  13   32.03    7.56
  -1   2  13   30.29    2.56
   1  -2 -13   37.63    4.78
   1  -2 -12  382.31   15.66
  -1   2  12  438.34   11.58
  -1  -2  12  414.62   24.51
  -1  -2  11    2.75    3.64
  -1   2  11    3.90    0.86
  -1  -2  11    3.90    2.28
   1  -2 -11    4.19    1.86
   1  -2 -10  221.92   10.83
  -1  -2  10  231.39   11.82
  -1   2  10  226.53    6.62
  -1  -2  10  225.62   16.29
  -1   2   9   36.16    2.03
  -1  -2   9   37.87    6.45
   1  -2  -9   38.36    4.22
  -1  -2   9   32.45    4.39
  -1  -2   8 1448.50   37.23
  -1  -2   8 1470.25   45.09
  -1   2   8 1512.22   35.20
   1  -2  -8 1474.59   34.33
  -1   2   8 1381.43   27.34
   1   2  -7    8.48    4.14
  -1  -2   7    5.81    2.63
  -1   2   7    2.72    1.38
  -1   2   7    2.48    0.40
   1  -2  -7    3.19    1.83
  -1  -2   7    2.52    1.96
   1   2  -6  170.06   13.46
  -1  -2   6  164.43   11.96
   1  -2  -6  156.65    7.73
  -1   2   6  158.30    7.89
  -1  -2   6  155.85    9.71
   1   2  -5  341.83   18.54
  -1  -2   5  309.88   16.52
  -1  -2   5  306.87   14.34
  -1   2   5  327.86   11.63
   1  -2  -5  325.52   11.27
  -1  -2   4   20.30    4.03
   1  -2  -4   18.11    2.36
   1   2  -4   16.72    4.11
  -1   2   4   19.48    3.67
  -1   2   4   23.33    2.69
  -1  -2   4   21.36    3.90
  -1   2   4   20.70    1.38
  -1   2   3  372.15   11.80
  -1  -2   3  385.17   17.34
   1   2  -3  380.22   18.37
   1  -2  -3  383.26   11.61
  -1   2   3  370.67    9.09
  -1   2   3  366.44   11.66
  -1   2   3  377.04   15.29
  -1   2   2 2319.90   51.41
  -1  -2   2 2356.74   56.13
  -1   2   2 2382.50   47.76
   1  -2  -2 2309.25   46.85
  -1   2   2 2278.13   48.91
  -1   2   2 2335.16   47.30
   1   2  -2 2355.17   58.39
  -1  -2   2 2250.49   49.97
  -1   2   2 2326.07   44.74
   1   2  -1   77.31    7.39
  -1  -2   1   77.92    6.96
   1  -2  -1   88.71    4.51
  -1   2   1   89.62    4.56
  -1   2   1   89.33    5.00
  -1  -2   1   77.12    5.35
  -1   2   1   84.66    5.42
  -1   2   1   95.23    5.54
  -1   2   1   80.66    3.79
   1  -2   0 1572.93   32.37
  -1   2   0 1613.22   34.56
   1  -2   0 1629.95   36.02
   1   2   0 1560.73   42.44
  -1   2   0 1574.04   32.56
   1  -2   0 1680.70   34.48
   1  -2   0 1600.99   33.11
  -1   2   0 1540.99   34.72
  -1   2   0 1550.67   32.58
  -1  -2   0 1618.13   41.60
  -1  -2   0 1512.04   35.89
   1   2   0 1570.40   36.29
   1  -2   1    4.86    1.18
   1  -2   1    6.90    1.35
  -1   2  -1    8.40    2.12
  -1   2  -1    5.32    1.04
  -1  -2  -1    3.99    1.60
  -1   2  -1    5.62    1.18
   1  -2   1    3.21    1.07
   1   2   1    5.80    2.04
   1  -2   1    7.66    1.25
   1   2   1    2.58    1.07
  -1   2  -1    6.87    1.21
  -1   2  -2 1558.16   33.97
  -1   2  -2 1612.24   32.10
   1  -2   2 1601.88   34.24
   1   2   2 1537.51   42.27
   1   2   2 1539.08   36.67
   1  -2   2 1603.13   34.35
  -1  -2  -2 1623.75   41.07
   1  -2   2 1577.93   31.39
  -1   2  -2 1692.00   33.22
  -1   2  -2 1588.43   34.97
   1  -2   2 1581.88   34.63
   1   2   3    0.04    0.81
   1  -2   3    0.79    0.71
   1  -2   3    0.96    0.77
   1  -2   3    0.26    0.56
  -1   2  -3    0.41    0.69
   1  -2   3   -0.02    0.38
  -1   2  -3    1.03    0.92
  -1  -2  -3   -0.01    1.02
   1  -2   3    3.50    2.05
  -1  -2  -3    1.60    1.49
  -1   2  -4 1382.03   31.01
  -1  -2  -4 1348.52   37.13
  -1   2  -4 1417.47   31.18
   1   2   4 1285.97   38.01
   1  -2   4 1396.12   35.81
  -1  -2  -4 1286.61   30.33
   1  -2   4 1350.88   26.01
   1  -2   4 1397.79   30.83
   1  -2   4 1334.09   30.19
   1  -2   4 1408.61   31.51
  -1  -2  -5  565.81   17.94
  -1  -2  -5  546.11   15.05
   1  -2   5  578.04   16.23
   1  -2   5  584.12   19.54
  -1   2  -5  566.20   16.52
  -1   2  -5  599.13   16.72
   1  -2   5  563.28   15.48
   1  -2   5  583.19   16.93
   1   2   5  531.75   21.14
   1  -2   6 3220.03   68.21
  -1  -2  -6 3182.35   66.56
  -1   2  -6 3196.07   65.59
   1   2   6 3093.93   73.16
   1  -2   6 3186.84   64.94
  -1  -2  -6 3163.02   62.24
   1  -2   6 3217.81   63.35
  -1   2  -6 3363.88   65.65
   1  -2   6 3156.12   66.02
   1  -2   7  342.54   10.99
  -1  -2  -7  327.53   12.46
   1   2   7  340.47   16.65
   1  -2   7  355.80   13.14
  -1   2  -7  361.32   12.85
   1  -2   7  344.92   13.22
  -1  -2  -7  339.09    9.78
  -1   2  -7  319.59   12.31
   1  -2   8 1717.97   36.31
   1  -2   8 1695.75   31.63
   1   2   8 1563.52   45.16
   1  -2   8 1640.39   39.68
  -1  -2  -8 1666.42   34.01
   1  -2   8 1666.18   38.84
  -1  -2  -8 1634.39   38.48
  -1   2  -8 1627.61   38.99
  -1  -2  -9  215.89    9.73
   1  -2   9  233.82    8.89
   1  -2   9  225.28    9.60
   1  -2   9  225.93    6.03
  -1   2  -9  210.69   10.12
  -1  -2  -9  237.26   10.27
  -1  -2 -10  162.17    8.54
   1   2  10  161.45    7.01
   1  -2  10  174.63    7.66
  -1   2 -10  163.90    8.95
  -1  -2 -10  163.85    8.64
   1  -2  10  170.23    5.34
   1   2  11  101.90    7.95
   1  -2  11  118.77    6.33
  -1  -2 -11  105.02    6.70
   1  -2  11  114.97    4.52
  -1   2 -11  114.03    7.70
   1   2  11   94.33    5.22
  -1  -2 -11  117.31    7.14
  -1  -2 -12  119.07    7.36
  -1  -2 -12  101.81    6.82
   1  -2  12  114.47    4.88
  -1   2 -12  120.24    8.00
   1   2  12  114.62    5.63
   1  -2  12  114.43    6.37
   1   2  13   92.74    5.03
  -1   2 -13  108.92    7.81
  -1  -2 -13  102.95    7.05
  -1  -2 -13  102.96    6.92
   1  -2  13  102.08    6.12
   1  -2  13  101.77    4.93
   1   2  14  940.48   22.92
  -1  -2 -14  967.77   27.08
   1  -2  14 1000.15   22.93
   1  -2  14  995.75   25.67
  -1   2 -14 1021.04   29.46
  -1  -2 -14  988.37   27.37
   1   2  15  458.95   13.44
   1  -2  15  481.50   16.00
   1  -2  15  489.27   14.00
  -1  -2 -15  485.24   17.46
  -1  -2 -15  480.66   17.43
  -1   2 -15  518.65   19.23
  -1   2 -16  771.27   25.52
   1  -2  16  773.62   22.26
   1  -2  16  763.83   20.14
  -1  -2 -16  769.92   24.01
  -1  -2 -16  771.47   23.96
   1   2  16  757.40   19.15
   1   2  17   28.45    2.90
  -1   2 -17   34.69    4.92
  -1  -2 -17   34.18    4.52
  -1  -2 -17   36.39    4.46
  -1  -2 -18    5.08    2.17
  -1  -2 -18    4.43    2.11
  -1   2 -18    0.85    1.26
  -1   2 -19  119.47    9.27
  -1  -2 -19  127.63    8.80
  -1  -2 -19  130.86    9.00
  -1   2 -20  227.28   13.46
  -1  -2 -20  226.88   12.48
  -1  -2 -20  211.56   12.08
  -1  -2 -21   59.81    6.33
  -1   2 -21   69.96    7.28
  -1  -2 -21   51.34    6.01
  -1   2 -22  341.57   17.24
  -1  -2 -22  351.09   16.47
  -1  -2 -22  326.94   16.04
  -1  -2 -23   22.77    4.08
  -1  -2 -23   20.68    4.00
  -1   2 -23   25.52    5.05
  -1  -2 -24  195.36   12.29
  -1  -2 -24  182.31   12.11
  -1   2 -24  216.03   13.86
  -1  -2 -25    5.84    2.35
  -1   2 -25    8.51    3.29
  -1  -3  24   15.03    7.82
  -1   3  24   13.44    4.30
   1  -3 -24    6.72    3.74
   1  -3 -23   95.02    9.75
  -1  -3  23   99.85   17.60
  -1   3  23   83.47    8.86
   1  -3 -22   76.81    8.47
  -1   3  22   81.21    8.36
  -1  -3  22   86.92   16.01
   1  -3 -21  117.75   10.40
  -1  -3  21  138.21   19.24
  -1  -3  20    7.31    5.56
   1  -3 -20   11.15    3.80
  -1  -3  19  798.65   44.18
   1  -3 -19  768.29   28.30
   1  -3 -18   30.50    5.17
  -1  -3  18   24.49    7.54
  -1  -3  17 1047.72   48.27
   1  -3 -17 1080.41   33.63
  -1  -3  16    4.38    4.24
   1  -3 -16    3.23    2.30
   1  -3 -15    2.00    2.27
  -1  -3  15    7.34    4.05
   1  -3 -14  241.62   12.79
  -1  -3  14  259.24   19.97
  -1  -3  13   95.07    7.33
   1  -3 -13   83.35    7.19
  -1  -3  13   73.88   10.25
  -1  -3  12   23.87    5.69
   1  -3 -12   33.33    4.53
  -1  -3  12   33.25    4.83
  -1  -3  11  580.63   28.20
   1  -3 -11  604.38   20.67
  -1   3  11  618.46   21.45
  -1  -3  11  627.88   21.99
  -1  -3  10  462.54   24.20
  -1  -3  10  500.45   19.65
   1  -3 -10  497.25   17.75
  -1   3  10  527.11   18.93
  -1  -3   9  488.90   19.57
  -1   3   9  540.41   18.79
  -1  -3   9  440.84   23.17
   1  -3  -9  493.87   17.28
  -1  -3   8   35.85    6.14
  -1  -3   8   33.80    5.21
   1  -3  -8   28.66    3.71
  -1   3   8   34.67    4.35
  -1  -3   7  791.03   30.54
  -1  -3   7  830.93   28.05
   1   3  -7  859.61   34.86
   1  -3  -7  739.27   22.48
  -1   3   7  829.12   24.27
   1   3  -6    5.80    2.81
  -1  -3   6    5.34    2.86
   1  -3  -6    3.31    1.48
  -1   3   6    6.45    1.88
  -1  -3   6   10.50    3.86
  -1   3   6    1.98    1.53
   1   3  -5   44.23    6.76
  -1   3   5   35.46    3.92
  -1  -3   5   43.46    5.98
   1  -3  -5   34.18    3.58
  -1   3   5   41.31    4.32
  -1   3   4  216.29    5.45
  -1  -3   4  238.71   14.08
  -1   3   4  248.61   10.35
   1   3  -4  243.37   15.58
  -1   3   4  258.17   11.05
   1  -3  -4  246.00    9.74
  -1   3   4  235.90   10.49
  -1   3   3  190.54    8.62
  -1  -3   3  174.92   11.56
  -1   3   3  174.12    5.28
   1  -3  -3  192.00    8.23
  -1  -3   3  180.07   10.13
  -1   3   3  188.28    9.15
   1   3  -3  180.27   12.83
  -1   3   3  188.56    9.21
  -1   3   3  189.03   10.29
  -1   3   2   67.90    5.24
   1   3  -2   65.14    7.49
  -1  -3   2   72.69    7.19
   1  -3  -2   78.21    3.69
  -1   3   2   74.00    5.05
  -1   3   2   65.63    5.36
   1  -3  -2   81.35    4.97
  -1   3   2   74.43    5.64
  -1  -3   2   69.59    6.08
  -1   3   2   74.85    3.48
   1   3  -1 1301.79   39.96
  -1   3   1 1394.78   30.42
   1  -3  -1 1359.02   30.44
  -1  -3   1 1342.54   37.87
  -1   3   1 1364.14   28.57
  -1   3   1 1344.77   31.24
   1  -3  -1 1389.34   28.87
  -1   3   1 1280.41   32.76
  -1  -3   1 1286.41   34.51
  -1  -3   0    7.40    1.97
  -1   3   0    8.27    1.74
   1  -3   0   14.25    2.14
  -1   3   0    5.79    0.89
   1  -3   0    7.73    1.44
   1   3   0    2.97    1.50
   1   3   0    7.89    2.52
  -1  -3   0    4.89    1.94
  -1   3   0    8.89    1.46
  -1  -3   0    9.34    3.10
  -1   3   0   15.62    2.92
   1  -3   0    8.41    1.85
   1  -3   0   10.95    2.81
   1  -3   1 1534.86   35.92
  -1  -3  -1 1484.44   41.36
  -1   3  -1 1503.79   32.96
  -1   3  -1 1509.46   36.63
   1  -3   1 1525.11   32.75
   1   3   1 1450.06   42.73
   1   3   1 1523.66   38.53
   1  -3   1 1591.43   36.95
  -1  -3  -1 1542.74   38.87
   1  -3   1 1529.60   33.29
  -1   3  -1 1609.09   34.74
   1   3   2   78.81    7.98
  -1   3  -2   79.57    4.85
   1  -3   2   84.68    4.40
  -1   3  -2   87.25    6.25
   1  -3   2   84.53    6.10
   1   3   2   80.74    6.40
  -1  -3  -2   89.14    7.87
  -1  -3  -2   76.98    6.18
   1  -3   2   75.97    4.76
   1  -3   2   85.38    5.78
  -1   3  -3 1831.37   41.86
  -1   3  -3 1751.70   38.96
   1   3   3 1712.11   48.46
  -1  -3  -3 1791.95   46.07
  -1  -3  -3 1729.78   41.19
   1  -3   3 1815.00   36.61
   1   3   3 1752.57   43.39
   1  -3   3 1784.81   40.34
   1  -3   3 1854.33   39.49
  -1  -3  -4   45.36    5.44
   1  -3   4   44.84    2.74
  -1  -3  -4   39.97    4.05
  -1  -3  -4   36.14    4.54
  -1   3  -4   43.71    4.47
   1   3   4   42.48    4.87
   1  -3   4   41.91    3.86
   1   3   4   39.60    5.88
   1  -3   4   49.70    4.17
  -1   3  -4   42.41    3.76
   1  -3   4   45.52    2.89
  -1   3  -5 2566.63   57.54
   1  -3   5 2601.63   50.29
   1  -3   5 2649.44   51.59
   1   3   5 2549.98   64.22
  -1  -3  -5 2526.16   54.42
  -1   3  -5 2569.85   54.75
  -1  -3  -5 2487.65   58.57
   1  -3   5 2595.29   54.67
   1  -3   5 2603.74   55.49
  -1  -3  -6  410.54   15.96
  -1   3  -6  422.19   16.26
   1  -3   6  420.42   12.44
   1  -3   6  408.04   14.78
   1   3   6  394.66   19.48
  -1   3  -6  436.03   14.67
  -1  -3  -6  413.33   13.68
   1  -3   6  423.05   10.94
   1  -3   6  428.21   14.45
   1  -3   7 1360.48   28.20
  -1   3  -7 1353.68   33.27
  -1  -3  -7 1315.23   34.71
   1  -3   7 1388.95   32.65
  -1   3  -7 1367.25   36.28
  -1  -3  -7 1331.74   31.22
   1  -3   7 1366.45   35.84
   1  -3   8    8.71    1.99
  -1   3  -8    8.26    2.05
   1  -3   8    2.55    1.44
  -1  -3  -8    8.24    2.24
  -1  -3  -8    5.26    1.50
   1   3   9  369.53   14.29
  -1  -3  -9  373.16   15.20
  -1   3  -9  381.89   14.63
   1  -3   9  375.84   14.40
  -1  -3  -9  376.90   12.16
   1  -3   9  373.51   13.97
  -1  -3 -10   97.73    7.24
  -1   3 -10   94.45    6.94
   1  -3  10  104.30    6.62
   1  -3  10   92.09    6.43
   1   3  10   92.58    6.43
   1  -3  11  893.80   20.29
  -1   3 -11  938.65   27.21
  -1  -3 -11  874.37   26.42
   1  -3  11  921.89   25.39
   1  -3  11  967.89   24.09
   1   3  11  918.78   25.31
  -1  -3 -11  926.12   25.63
  -1  -3 -12    1.55    1.48
  -1  -3 -12    0.94    1.08
   1   3  12    2.60    1.74
  -1   3 -12   -0.33    1.08
   1  -3  12    1.41    2.01
   1  -3  12    1.39    0.61
  -1  -3 -13  394.09   16.35
  -1   3 -13  472.47   17.83
   1  -3  13  425.50   15.91
   1  -3  13  430.62   11.90
   1   3  13  430.44   15.21
  -1  -3 -13  431.76   15.91
  -1  -3 -14    5.17    1.98
  -1   3 -14    5.27    1.82
   1   3  14    2.03    1.42
   1  -3  14    7.09    2.81
  -1  -3 -14    3.32    1.60
   1  -3  14    3.89    1.20
  -1   3 -15  106.32    8.17
   1   3  15   98.34    6.64
  -1  -3 -15  108.87    8.24
   1  -3  15   95.18    7.25
  -1  -3 -15  114.41    7.64
  -1  -3 -16    1.08    1.22
  -1   3 -16   -0.59    1.09
  -1  -3 -16    2.03    1.81
   1   3  16    0.86    1.40
  -1  -3 -17   79.33    7.17
   1   3  17   78.80    5.92
  -1  -3 -17   87.94    6.90
  -1   3 -17   77.23    7.25
  -1  -3 -18   15.16    3.01
  -1  -3 -18   18.14    3.63
  -1   3 -18   15.49    3.49
  -1  -3 -19  262.92   12.95
  -1   3 -19  247.32   13.94
  -1  -3 -19  251.00   13.90
  -1  -3 -20    3.16    2.36
  -1  -3 -20   -0.47    1.12
  -1   3 -20    3.63    2.10
  -1  -3 -21  251.80   13.35
  -1   3 -21  255.74   14.88
  -1  -3 -21  256.29   14.46
  -1  -3 -22   30.09    5.13
  -1  -3 -22   22.00    4.26
  -1   3 -22   30.37    5.16
  -1   3 -23  103.92    9.54
  -1  -3 -23   84.25    8.64
  -1  -3 -24    7.06    3.07
  -1  -3 -25   81.21    8.71
  -1  -4  24   50.32   12.71
  -1   4  23    2.86    3.10
  -1  -4  23   -0.76    4.05
  -1  -4  22   35.33    9.45
  -1   4  22   58.46    7.47
   1  -4 -22   45.12    7.17
   1  -4 -21   61.92    7.79
  -1  -4  21   83.21   14.77
  -1   4  21   70.99    8.28
  -1  -4  20  529.62   36.17
   1  -4 -20  523.63   23.66
  -1   4  20  531.75   23.19
   1  -4 -19   32.31    5.68
  -1  -4  19   32.84    9.14
  -1   4  19   33.81    5.58
   1  -4 -18  584.26   24.35
  -1   4  18  631.97   24.78
  -1  -4  18  621.79   37.03
  -1   4  17   27.48    5.08
  -1  -4  17   13.20    5.79
   1  -4 -17   11.93    3.66
  -1  -4  16  229.80   20.31
  -1   4  16  283.83   15.21
   1  -4 -16  265.92   14.84
  -1  -4  15    3.57    3.36
   1  -4 -15    3.65    2.38
  -1   4  15    2.22    2.55
  -1  -4  14    2.69    2.67
   1  -4 -14    1.54    1.94
  -1   4  14    1.16    2.10
  -1  -4  13   69.02    9.93
  -1   4  13   87.19    7.90
   1  -4 -13   81.53    7.63
   1  -4 -12   48.44    5.67
  -1  -4  12   40.31    7.82
  -1  -4  12   37.70    5.73
  -1   4  12   43.70    5.96
  -1  -4  11   17.91    5.33
   1  -4 -11   14.18    3.39
  -1  -4  11   13.90    3.64
  -1   4  11   14.26    3.62
  -1   4  10  964.43   29.75
  -1  -4  10 1004.47   33.45
   1  -4 -10  942.30   28.60
  -1  -4  10  948.30   37.38
  -1  -4   9  148.33   13.20
  -1   4   9  168.10   10.44
  -1  -4   9  181.91   13.14
   1  -4  -9  142.02    9.30
  -1  -4   8  690.58   29.61
   1  -4  -8  704.77   22.56
  -1   4   8  721.63   23.93
  -1  -4   7    4.63    2.22
   1  -4  -7    9.97    2.83
  -1   4   7   11.97    2.88
   1   4  -6  808.94   33.91
  -1  -4   6  734.79   29.24
   1  -4  -6  772.73   23.17
  -1   4   6  795.51   24.95
   1   4  -5  272.63   17.97
  -1  -4   5  257.51   15.53
  -1   4   5  308.65   13.73
   1  -4  -5  279.46   11.97
  -1  -4   5  254.50   14.08
   1   4  -4  833.51   33.20
  -1  -4   4  827.82   29.78
   1  -4  -4  883.25   24.14
  -1  -4   4  865.22   28.38
  -1   4   4  831.79   26.13
  -1   4   4  881.72   26.19
  -1  -4   3    2.87    2.16
  -1   4   3    8.72    2.54
   1  -4  -3    2.15    0.68
   1  -4  -3    3.89    1.66
  -1   4   3    4.47    1.90
  -1   4   3    3.56    1.92
  -1  -4   3    7.30    2.76
   1   4  -3    0.94    1.17
  -1   4   3    4.13    2.63
  -1   4   2  893.36   26.96
   1   4  -2  918.17   33.50
   1  -4  -2  926.55   24.40
  -1   4   2  933.88   27.90
  -1  -4   2  887.70   29.43
  -1   4   2  923.90   26.25
  -1  -4   2  865.10   29.87
   1  -4  -2  929.24   20.91
  -1   4   2  900.68   23.81
  -1   4   1  178.22    9.60
  -1   4   1  176.44    6.05
   1   4  -1  180.46   13.13
   1  -4  -1  179.41    7.02
  -1   4   1  174.52    6.55
  -1  -4   1  172.25   11.56
   1  -4  -1  186.61    8.57
  -1  -4   1  176.83   11.00
  -1   4   1  180.17   10.33
   1   4   0  274.78   16.34
  -1   4   0  293.18    9.65
  -1  -4   0  289.16   15.35
   1  -4   0  283.55    9.93
   1  -4   0  296.56   11.04
  -1   4   0  282.89   13.31
  -1  -4   0  301.01   15.09
   1  -4   0  315.21   13.96
  -1   4  -1  760.71   19.13
  -1  -4  -1  701.38   25.95
   1  -4   1  760.30   19.95
   1  -4   1  718.42   23.63
   1   4   1  696.08   28.01
  -1   4  -1  738.24   23.64
   1  -4   1  726.10   19.48
   1   4   2  347.24   18.63
  -1  -4  -2  336.93   16.70
  -1   4  -2  362.05   12.09
   1  -4   2  351.41   11.87
  -1   4  -2  353.37   15.41
   1  -4   2  380.78   15.83
   1  -4   2  378.04   12.75
   1  -4   3   92.92    6.03
  -1   4  -3   94.87    5.77
   1  -4   3   97.42    5.48
   1   4   3   80.44    8.73
  -1  -4  -3   87.19    7.02
   1  -4   3   91.98    7.53
  -1   4  -3  100.05    7.88
  -1  -4  -3   98.36    8.73
  -1  -4  -4 1720.19   45.25
   1  -4   4 1692.32   37.17
   1  -4   4 1711.35   43.89
  -1   4  -4 1777.26   44.51
  -1  -4  -4 1697.89   41.54
  -1   4  -4 1723.04   38.87
   1  -4   4 1713.89   40.10
  -1  -4  -5  167.87   10.68
  -1   4  -5  176.93    8.53
   1  -4   5  165.48    7.16
  -1   4  -5  173.55   10.90
  -1  -4  -5  162.31    9.16
  -1  -4  -6  366.60   16.28
   1  -4   6  354.46   11.43
   1  -4   6  358.59   10.40
  -1   4  -6  368.52   17.09
   1  -4   6  375.07    9.60
  -1   4  -6  363.49   13.55
  -1  -4  -6  358.38   13.97
   1  -4   7   81.25    4.30
  -1   4  -7   85.48    6.22
   1  -4   7   82.73    4.77
   1  -4   7   98.87    6.34
  -1  -4  -7   77.65    5.96
  -1   4  -7   77.28    7.78
  -1  -4  -7   80.01    7.13
   1  -4   8  521.45   14.91
  -1  -4  -8  527.94   20.15
  -1  -4  -8  521.22   17.16
  -1   4  -8  537.94   18.04
  -1   4  -9   37.53    4.33
  -1  -4  -9   28.74    4.32
   1  -4   9   28.97    4.44
   1   4   9   28.59    4.42
  -1  -4  -9   31.03    3.68
  -1   4 -10  615.64   20.48
  -1  -4 -10  603.04   22.04
   1  -4  10  614.77   21.07
   1   4  10  637.38   22.60
  -1  -4 -10  603.99   18.84
  -1  -4 -11    0.58    1.44
  -1   4 -11    3.99    1.89
   1  -4  11    2.29    1.40
   1   4  11   -0.38    1.59
  -1   4 -12  346.19   15.33
  -1  -4 -12  370.71   16.77
   1  -4  12  385.10   13.91
  -1  -4 -12  380.62   14.79
   1   4  12  375.41   16.50
  -1   4 -13   32.63    4.68
  -1  -4 -13   34.49    4.12
   1   4  13   39.43    5.24
  -1  -4 -13   35.78    5.12
  -1   4 -14  481.12   18.91
  -1  -4 -14  467.72   19.44
   1   4  14  459.38   18.60
  -1  -4 -14  464.17   16.94
  -1  -4 -15    5.69    1.89
  -1  -4 -15    9.84    3.07
  -1   4 -15    7.82    2.49
   1   4  15   11.34    3.17
  -1  -4 -16  112.92    7.74
  -1   4 -16  133.05    9.91
  -1  -4 -16  116.27    9.41
   1   4  16  135.41    9.26
  -1  -4 -17   12.91    2.66
  -1  -4 -17   17.87    3.84
  -1   4 -17   22.37    4.09
  -1   4 -18  181.28   12.01
  -1  -4 -18  182.54   10.28
  -1  -4 -18  180.08   12.05
  -1  -4 -19    2.23    2.10
  -1  -4 -19    1.78    1.48
  -1   4 -19    3.27    2.45
  -1   4 -20  257.83   15.14
  -1  -4 -20  256.40   15.09
  -1   4 -21   17.77    4.27
  -1  -4 -21   17.98    4.16
  -1   4 -22  110.31   10.15
  -1  -4 -22  127.07   10.73
  -1  -4 -23    6.08    3.43
  -1  -4 -24   37.98    6.52
  -1  -5  23   58.47   13.31
  -1  -5  22   -0.11    3.47
  -1   5  22    5.94    3.47
  -1  -5  21   24.75    7.87
  -1   5  21   33.31    6.34
  -1   5  20    4.43    2.44
  -1  -5  20   -1.19    2.34
  -1  -5  19   30.27    8.42
  -1   5  19   29.21    5.54
   1  -5 -19   31.15    5.88
  -1  -5  18   11.15    5.55
   1  -5 -18   15.70    4.26
  -1   5  18   13.91    4.04
  -1  -5  17  104.33   14.63
   1  -5 -17  115.89   10.36
  -1   5  17  114.39   10.32
  -1  -5  16    7.80    4.24
   1  -5 -16    3.93    2.95
  -1   5  16    7.06    3.29
  -1  -5  15  584.83   32.99
  -1   5  15  591.86   24.69
   1  -5 -15  549.00   23.10
  -1  -5  14   32.75    7.70
   1  -5 -14   46.66    6.45
  -1   5  14   32.06    5.52
  -1   5  13  215.37   14.11
   1  -5 -13  224.46   13.39
  -1  -5  13  226.36   18.90
   1  -5 -12    3.97    2.64
  -1  -5  12    1.01    2.19
  -1   5  12    3.74    3.12
  -1  -5  11  297.56   20.60
   1  -5 -11  328.67   16.12
  -1   5  11  336.77   17.00
  -1  -5  10   18.20    4.80
   1  -5 -10   14.98    3.53
  -1  -5  10   17.81    5.86
  -1   5  10   21.95    4.51
  -1  -5   9  589.69   28.10
   1  -5  -9  606.14   22.10
  -1   5   9  638.01   24.03
   1  -5  -8    4.82    2.37
  -1   5   8    4.96    2.76
  -1  -5   8    1.64    2.13
  -1  -5   7  583.11   24.96
  -1  -5   7  570.36   26.01
   1  -5  -7  573.38   20.83
  -1   5   7  643.06   23.62
  -1   5   6  103.35    8.79
  -1  -5   6   85.63    9.15
   1  -5  -6   89.87    7.32
  -1  -5   6   90.49    9.04
  -1  -5   5  541.11   23.87
  -1   5   5  563.63   22.07
   1  -5  -5  578.82   19.90
  -1  -5   5  571.78   23.94
  -1   5   4   40.84    5.70
  -1  -5   4   35.23    5.52
   1  -5  -4   44.52    4.87
  -1  -5   4   38.36    5.75
   1  -5  -4   38.53    2.60
   1   5  -3  423.74   22.72
  -1  -5   3  378.93   18.93
   1  -5  -3  418.07   11.58
  -1   5   3  391.87   12.59
   1  -5  -3  392.96   15.37
  -1  -5   3  377.59   19.16
  -1   5   3  413.15   18.11
  -1   5   3  449.40   15.93
   1  -5  -2   11.88    2.62
   1   5  -2    7.51    2.77
   1  -5  -2    8.67    1.56
  -1   5   2    9.93    1.36
  -1  -5   2   10.20    3.03
  -1   5   2   11.03    3.27
  -1   5   2    7.84    1.47
  -1  -5   2    6.19    2.48
   1   5  -1  547.99   26.27
  -1  -5   1  566.97   23.45
  -1   5   1  607.64   22.93
   1  -5  -1  625.06   19.48
   1  -5  -1  623.74   16.97
  -1  -5   1  598.98   24.38
   1  -5   0  335.88   13.04
  -1  -5   0  317.51   16.66
   1  -5   0  323.08   11.60
   1  -5   0  331.06   16.35
  -1   5   0  323.32   16.13
   1  -5   1  105.67    6.69
  -1  -5  -1   95.99    8.76
  -1   5  -1  100.90    8.82
   1  -5   1  113.23    9.12
   1  -5   1  102.57    6.27
   1  -5   2   12.61    2.19
  -1   5  -2    8.33    3.01
  -1  -5  -2    9.68    2.82
   1  -5   2    8.00    2.54
   1  -5   2   12.34    2.38
   1  -5   3  320.64   12.26
  -1  -5  -3  306.33   16.43
   1  -5   3  327.18   16.25
  -1   5  -3  328.01   16.87
   1  -5   4    9.37    2.14
  -1  -5  -4    5.47    2.44
  -1   5  -4   15.46    2.79
   1  -5   4    8.59    2.90
  -1   5  -4    9.95    3.31
  -1   5  -5 1013.24   26.68
   1  -5   5  932.62   31.59
  -1   5  -5  974.66   33.29
   1  -5   5  943.17   24.91
  -1  -5  -5  926.93   31.00
   1  -5   6    2.02    2.62
  -1   5  -6    5.88    2.12
  -1  -5  -6    4.02    2.40
   1  -5   6    0.61    1.17
  -1   5  -6    2.68    2.38
   1  -5   7  825.04   22.36
  -1  -5  -7  791.79   27.91
  -1   5  -7  864.33   24.89
  -1   5  -7  846.07   31.63
  -1  -5  -8   12.97    3.37
  -1   5  -8   13.34    2.84
   1  -5   8    7.96    1.56
   1  -5   9  182.93    8.64
  -1   5  -9  185.78   10.53
  -1  -5  -9  175.57   11.76
   1  -5   9  198.01    9.05
  -1   5 -10  217.96   11.69
  -1  -5 -10  219.06   13.21
   1  -5  10  242.47   12.25
   1  -5  10  224.10    9.81
   1   5  10  219.52   14.46
   1   5  11   43.95    6.46
   1  -5  11   49.68    4.35
  -1   5 -11   42.22    5.14
   1  -5  11   45.68    5.66
   1  -5  11   53.17    6.22
  -1  -5 -11   39.51    5.73
   1  -5  12   77.42    8.64
  -1   5 -12   70.07    6.82
  -1  -5 -12   68.20    7.45
   1  -5  12   73.10    6.72
   1   5  12   71.62    8.20
   1   5  13  255.58   15.44
  -1  -5 -13  250.15   14.52
  -1   5 -13  251.30   13.53
  -1  -5 -13  266.53   12.34
  -1  -5 -14  244.13   11.67
  -1   5 -14  228.18   13.05
  -1  -5 -14  222.87   14.04
   1   5  14  244.24   15.01
  -1   5 -15  851.34   28.68
  -1  -5 -15  855.24   30.17
  -1  -5 -15  845.39   25.37
   1   5  15  850.55   30.71
  -1  -5 -16   19.88    3.29
  -1  -5 -16   23.86    5.12
  -1   5 -16   30.83    5.02
  -1   5 -17  441.87   19.93
  -1  -5 -17  442.81   20.87
  -1  -5 -18    8.73    3.76
  -1   5 -18    5.83    2.67
  -1   5 -19  203.79   13.48
  -1  -5 -19  182.56   13.48
  -1   5 -20   15.63    3.77
  -1  -5 -20   25.34    5.48
  -1  -5 -21  134.69   11.75
  -1  -5 -22   30.04    5.96
  -1   6  21    1.49    3.62
  -1   6  20   16.07    5.14
  -1   6  19    6.17    4.21
  -1  -6  18  187.43   20.78
  -1   6  18  167.92   14.04
   1  -6 -18  164.10   13.39
   1  -6 -17   19.56    4.93
  -1  -6  17   13.31    6.35
  -1   6  17   13.12    4.92
  -1  -6  16  156.19   17.83
  -1   6  16  147.12   12.79
   1  -6 -16  149.87   12.28
  -1   6  15   32.67    6.45
  -1  -6  15   21.75    6.64
   1  -6 -15   20.96    4.81
  -1  -6  14  144.31   15.80
  -1   6  14  143.70   12.45
   1  -6 -14  126.68   10.66
  -1  -6  13   -1.00    2.77
   1  -6 -13    2.89    2.18
  -1   6  13    6.21    3.16
  -1  -6  12  217.07   18.27
   1  -6 -12  212.89   13.56
  -1   6  12  226.07   15.48
  -1  -6  11   56.24    9.01
  -1   6  11   48.72    7.63
   1  -6 -11   42.86    6.12
  -1  -6  10  217.86   17.06
  -1   6  10  245.87   15.78
  -1  -6  10  219.90   16.57
   1  -6 -10  228.96   13.55
  -1  -6   9   32.99    6.34
   1  -6  -9   44.48    5.81
  -1  -6   9   22.25    5.17
  -1  -6   8  468.68   24.29
  -1   6   8  519.89   23.25
   1  -6  -8  521.58   20.80
  -1  -6   8  488.77   24.85
  -1  -6   7   50.56    7.31
   1  -6  -7   34.17    5.10
  -1   6   7   41.95    6.66
  -1  -6   7   36.70    6.32
  -1   6   6  594.60   25.12
  -1  -6   6  602.31   26.31
   1  -6  -6  619.24   22.21
  -1  -6   6  575.44   26.28
  -1  -6   5   28.22    5.60
   1  -6  -5   31.92    4.74
  -1  -6   5   25.71    5.21
  -1   6   5   28.19    5.45
  -1  -6   4  570.69   24.65
   1  -6  -4  579.29   20.87
  -1  -6   4  571.52   25.88
  -1   6   4  596.41   24.81
  -1   6   3   32.52    3.49
   1  -6  -3   34.67    4.74
  -1  -6   3   19.76    4.31
  -1   6   3   26.69    5.64
  -1  -6   3   25.97    5.77
  -1  -6   2  558.39   24.06
   1  -6  -2  599.33   20.65
  -1   6   2  586.03   24.69
  -1  -6   2  565.76   25.97
   1  -6  -1   53.51    5.64
  -1  -6   1   41.67    6.20
  -1   6   1   56.28    7.16
   1  -6  -1   47.97    4.26
  -1  -6   0  332.09   17.56
   1  -6   0  319.09   13.81
  -1   6   0  307.45   17.49
   1  -6   0  324.07   12.40
   1  -6   1   39.46    4.60
  -1  -6  -1   29.63    5.48
  -1  -6  -1   36.83    5.62
  -1   6  -1   46.00    6.65
   1  -6   1   34.99    5.68
   1  -6   2    2.69    1.72
  -1  -6  -2    3.96    1.73
  -1   6  -2   10.28    4.45
   1  -6   2    4.97    2.89
   1  -6   3  501.16   17.48
  -1  -6  -3  519.95   23.33
   1  -6   3  506.62   22.65
  -1   6  -3  467.75   23.15
  -1  -6  -4    1.61    2.19
  -1   6  -4    6.76    3.02
   1  -6   4    4.15    2.80
   1  -6   4    4.71    1.92
  -1  -6  -5   75.23    8.37
   1  -6   5   71.61    5.98
   1  -6   5   72.45    8.42
  -1   6  -5   73.21    9.50
  -1  -6  -6  752.10   28.49
   1  -6   6  774.29   23.04
   1  -6   6  791.41   30.47
  -1   6  -6  773.07   32.66
   1  -6   7  119.48    7.59
  -1  -6  -7  115.34   10.37
   1  -6   7  129.06   11.78
   1  -6   8  294.00   12.60
  -1  -6  -8  302.30   16.74
   1  -6   8  333.41   19.36
   1  -6   9   66.09    5.57
  -1  -6  -9   82.81    8.62
   1  -6   9   94.45   10.29
   1  -6  10   49.30    4.82
  -1  -6 -10   60.57    7.58
  -1  -6 -11   14.16    4.25
  -1  -6 -12  306.45   17.19
  -1  -6 -13   42.24    6.61
   1   6  13   57.58    8.60
  -1  -6 -14  348.31   18.75
   1   6  14  341.08   20.62
  -1  -6 -15    5.73    3.44
   1   6  15    7.18    4.38
  -1  -6 -16  376.56   20.04
  -1  -6 -17   10.92    3.89
  -1  -6 -18  133.36   12.00
  -1  -6 -19    5.52    3.30
  -1   7  18   18.43    5.43
  -1   7  17  156.79   14.78
  -1   7  16  295.58   20.19
  -1   7  15   80.04   10.28
   1  -7 -15  112.33   10.90
   1  -7 -14   15.56    4.42
  -1  -7  14   18.53    6.21
  -1   7  14   28.60    6.31
  -1  -7  13  188.30   17.50
   1  -7 -13  181.18   13.58
  -1   7  13  194.04   15.86
  -1  -7  12    0.73    2.81
   1  -7 -12    1.56    2.37
  -1   7  12    3.04    4.08
  -1  -7  11  307.41   21.62
   1  -7 -11  298.94   16.87
  -1   7  11  311.56   19.57
  -1   7  10    9.00    4.83
   1  -7 -10    3.75    2.97
  -1  -7  10    6.09    4.03
  -1  -7   9  419.13   23.55
   1  -7  -9  376.98   18.58
  -1  -7   9  386.63   23.59
  -1   7   9  413.61   22.79
  -1  -7   8   29.25    6.06
   1  -7  -8   32.29    5.34
  -1  -7   8   22.82    5.96
  -1   7   8   29.54    6.31
  -1  -7   7   13.55    3.64
  -1  -7   7    9.30    3.58
  -1   7   7    9.78    4.52
   1  -7  -7   10.59    3.44
   1  -7  -6   13.87    3.44
  -1  -7   6   10.65    3.55
  -1  -7   6   14.30    4.84
  -1   7   6   12.09    4.41
   1  -7  -5   19.29    4.02
  -1  -7   5   18.61    5.20
  -1  -7   5   24.01    4.94
  -1   7   5   33.10    6.36
  -1  -7   4    6.85    2.79
  -1   7   4   12.37    5.14
   1  -7  -4   10.30    3.14
  -1  -7   4   17.98    5.34
  -1  -7   3  596.30   25.85
   1  -7  -3  582.60   22.15
  -1  -7   3  575.52   27.89
  -1   7   3  584.29   27.23
   1  -7  -2    3.45    2.45
  -1  -7   2    7.33    3.01
  -1   7   2   -0.23    3.11
  -1  -7   1  197.55   13.72
   1  -7  -1  189.64   11.30
  -1  -7   1  215.63   15.78
  -1   7   1  184.33   14.67
  -1  -7   0    2.94    2.44
   1  -7   0    7.14    2.83
  -1   7   0    0.57    2.54
  -1  -7  -1  307.67   18.69
   1  -7   1  271.11   13.48
  -1   7  -1  290.58   19.28
   1  -7   2    5.79    2.53
   1  -7   2    6.38    3.81
  -1  -7  -2    5.67    2.88
  -1   7  -2    8.85    5.23
  -1  -7  -3  247.03   16.30
   1  -7   3  237.69   12.27
   1  -7   3  249.24   16.82
  -1   7  -3  229.25   17.57
   1  -7   4    0.09    1.72
  -1  -7  -4    7.53    3.34
  -1   7  -4    4.56    4.79
   1  -7   4    8.65    2.76
  -1  -7  -5  143.09   12.10
   1  -7   5  159.18    9.66
   1  -7   5  156.33   13.37
  -1   7  -5  159.03   14.93
  -1  -7  -6   20.95    5.10
   1  -7   6   19.06    3.46
   1  -7   6   25.53    5.71
   1  -7   7  216.99   11.41
  -1  -7  -7  205.30   14.72
   1  -7   7  229.42   16.86
   1  -7   8    2.31    1.51
   1  -7   8    7.18    3.91
  -1  -7  -8    2.00    2.13
  -1  -7  -9   99.97   10.04
   1  -7   9  113.53   12.29
   1  -7  10    3.19    3.56
  -1  -7 -10   10.31    4.07
  -1  -7 -11  320.26   18.64
   1  -7  11  344.99   23.05
  -1  -7 -12   23.22    5.50
   1  -7  12   36.58    8.12
  -1  -7 -13   97.69   10.19
  -1  -7 -14   35.82    6.33
  -1  -7 -15   71.37    8.98
   1  -8 -11    8.42    3.50
  -1   8  11    8.09    4.54
   1  -8 -10  185.52   13.60
  -1  -8  10  158.49   15.93
  -1   8  10  207.00   17.75
  -1  -8   9    2.12    3.50
   1  -8  -9    5.25    3.00
  -1   8   9   10.84    5.09
   1  -8  -8   39.51    6.07
  -1  -8   8   41.40    8.35
  -1   8   8   59.95    9.49
   1  -8  -7  235.23   14.74
  -1  -8   7  227.95   18.98
  -1   8   7  253.07   19.08
   1  -8  -6    9.40    3.65
  -1   8   6    5.99    4.25
  -1  -8   6    6.71    4.53
   1  -8  -5   10.05    3.24
  -1   8   5    9.32    4.61
  -1  -8   5   12.03    4.97
   1  -8  -4  127.54   10.32
  -1   8   4  125.29   13.36
  -1  -8   4  123.80   13.69
  -1  -8   4  138.62   13.82
  -1  -8   3  110.51   12.07
   1  -8  -3   91.00    8.72
  -1   8   3  105.43   12.82
  -1  -8   2  204.53   16.52
  -1   8   2  195.83   16.89
   1  -8  -2  197.71   12.67
   1  -8  -1   39.13    5.67
  -1  -8   1   31.98    7.06
  -1   8   1   40.40    8.68
  -1  -8   0  256.50   18.28
   1  -8   0  234.62   13.56
  -1   8   0  256.72   19.74
   1  -8   1   17.72    4.06
  -1  -8  -1    7.69    3.90
  -1   8  -1   14.94    6.91
  -1  -8  -2  194.47   15.26
  -1   8  -2  234.77   19.64
   1  -8   2  228.32   12.93
   1  -8   3   75.22    7.40
  -1  -8  -3   73.40    9.40
  -1   8  -3   68.99   10.66
  -1  -8  -4  138.23   12.88
   1  -8   4  145.82   10.10
   1  -8   4  144.48   13.89
   1  -8   5   24.32    6.12
  -1  -8  -5   14.94    4.61
   1  -8   5   22.87    4.17
  -1  -8  -6  228.88   16.47
   1  -8   6  210.62   16.92
   1  -8   7   -2.48    1.82
  -1  -8  -7    4.86    3.39
  -1  -8  -8  151.23   13.40
   1  -8   8  146.41   14.46
   1  -8   9   12.66    4.78
  -1  -8  -9   22.91    5.57
   1  -8  10  113.69   13.41
   1  -8  11   30.62    7.48
   1  -9  -5   91.40    9.63
   1  -9  -4   -1.06    1.88
   1  -9  -3   36.11    6.00
   1  -9  -2   15.59    4.64
   1  -9  -1  310.75   17.03
   1  -9   0   84.30    8.64
   1  -9   1  230.02   14.29
   1  -9   2   29.17    5.42
  -2   0  23    4.52    5.22
  -2   0  22   11.17    6.08
  -2   0  21   -3.16    5.09
  -2   0  20  119.13   18.45
   2   0 -20  142.88   14.16
  -2   0  19    6.18    5.47
   2   0 -19    1.96    3.25
  -2   0  18  367.07   30.03
   2   0 -18  374.43   23.57
  -2   0  17    2.39    4.37
   2   0 -17    2.33    3.03
  -2   0  16  295.61   25.40
   2   0 -16  324.56   21.34
  -2   0  15    5.90    4.50
   2   0 -15    6.86    4.44
  -2   0  14  267.81   22.55
   2   0 -14  265.24   18.70
  -2   0  13    3.33    2.91
   2   0 -13   -0.66    2.41
  -2   0  12  655.51   34.89
   2   0 -12  643.97   29.60
  -2   0  11    4.95    3.69
   2   0 -11   -2.49    2.59
  -2   0  10  558.85   30.28
   2   0 -10  612.78   28.19
  -2   0   9    0.64    2.72
   2   0  -9    4.66    3.51
  -2   0   8  874.36   36.64
   2   0  -8  849.61   33.48
  -2   0   7    0.04    1.65
   2   0  -7    1.47    2.19
  -2   0   6  521.91   26.02
   2   0  -6  483.79   23.77
  -2   0   5   -1.11    1.84
   2   0  -5   -2.10    2.37
   2   0  -4   72.08    9.55
  -2   0   4   74.36    8.88
   2   0  -4   77.27    9.00
   2   0  -3    2.67    2.85
  -2   0   3    0.72    1.62
   2   0  -3    3.82    3.35
  -2   0   2  247.88   15.69
   2   0  -2  197.93   14.48
   2   0  -2  232.52   15.93
   2   0  -1    1.51    1.73
  -2   0   1   -0.04    1.46
  -2   0   1    1.27    2.15
   2   0  -1   -0.09    1.84
   2   0   0  543.02   24.77
  -2   0   0  573.94   24.29
  -2   0   0  587.96   26.40
   2   0   0  519.74   24.12
   2   0   1    0.51    1.69
  -2   0  -1    1.69    1.80
  -2   0  -1    0.18    1.76
   2   0   1   -0.75    1.79
   2   0   2  797.04   31.01
  -2   0  -2  785.89   31.41
   2   0   2  745.01   29.57
  -2   0  -2  834.42   29.36
   2   0   3   -0.71    1.32
  -2   0  -3    1.42    1.94
  -2   0  -3    3.11    2.39
   2   0   3   -0.40    2.56
  -2   0  -4  454.95   20.17
  -2   0  -4  456.88   22.61
   2   0   4  445.32   21.55
   2   0   5    0.67    1.22
  -2   0  -5    0.67    1.27
  -2   0  -5    1.64    2.39
  -2   0  -6  749.55   26.82
  -2   0  -6  716.34   29.45
  -2   0  -6  729.62   23.43
  -2   0  -7    0.59    1.19
  -2   0  -7    0.46    0.78
  -2   0  -7    0.96    0.90
  -2   0  -8 1690.49   35.43
  -2   0  -8 1677.55   32.69
  -2   0  -8 1715.11   42.92
  -2   0  -9   -0.69    0.93
  -2   0  -9   -0.40    0.64
  -2   0 -10  560.91   14.42
  -2   0 -10  592.95   21.25
  -2   0 -11    2.91    1.88
  -2   0 -11    0.64    0.89
  -2   0 -12 1562.67   33.59
  -2   0 -12 1734.47   43.12
  -2   0 -13    1.38    2.06
  -2   0 -13    1.59    1.08
  -2   0 -14  619.32   22.71
  -2   0 -14  566.61   15.32
  -2   0 -15    0.22    1.11
  -2   0 -15    0.21    0.90
  -2   0 -16   12.03    3.15
  -2   0 -16   13.40    2.10
  -2   0 -17   -0.02    1.21
  -2   0 -18  138.24   10.77
  -2   0 -19    4.15    2.61
  -2   0 -20  102.74    9.53
  -2   0 -21    5.20    3.33
  -2   0 -22  502.08   23.39
  -2   0 -23    7.46    3.87
  -2   1  23   46.59   13.22
  -2  -1  23   55.30   13.85
  -2  -1  22    7.61    5.27
  -2   1  22    6.64    4.51
  -2   1  21  114.77   18.72
  -2  -1  21   99.20   17.06
   2  -1 -21   93.50   12.50
  -2   1  20   12.70    6.72
  -2  -1  20    5.47    4.50
   2  -1 -20    8.48    5.41
  -2   1  19  301.80   28.73
  -2  -1  19  329.42   28.95
   2  -1 -19  333.49   23.55
   2   1 -19  326.17   20.95
  -2   1  18   26.82    9.23
  -2  -1  18   33.56    8.85
   2  -1 -18   44.54    8.68
   2   1 -18   34.27    6.80
  -2   1  17  221.43   22.58
  -2  -1  17  208.60   21.64
   2  -1 -17  195.43   17.68
   2   1 -17  234.06   17.39
  -2   1  16    9.36    6.53
  -2  -1  16    8.26    4.96
   2  -1 -16   19.10    6.45
   2   1 -16   10.70    5.07
  -2   1  15  335.04   26.21
  -2  -1  15  320.15   25.04
   2  -1 -15  316.13   21.97
   2   1 -15  301.64   19.79
  -2   1  14  123.49   15.42
  -2  -1  14  139.39   15.72
   2  -1 -14  116.29   13.46
   2   1 -14  147.49   13.46
  -2   1  14  132.38    7.03
  -2  -1  13  657.74   35.36
  -2   1  13  613.80   17.80
  -2   1  13  640.17   34.92
   2  -1 -13  631.97   31.83
   2   1 -13  599.05   28.30
  -2   1  12  143.67   15.92
  -2  -1  12  158.56   15.93
   2  -1 -12  145.16   14.30
   2   1 -12  144.39   13.26
  -2   1  11  307.41   22.01
  -2  -1  11  323.86   23.07
   2  -1 -11  328.54   21.55
   2   1 -11  295.02   18.70
  -2   1  10  152.07   14.95
  -2  -1  10  145.62   15.01
   2  -1 -10  150.36   14.17
   2   1 -10  149.41   13.31
  -2   1   9  246.07   18.49
   2  -1  -9  234.59   17.77
   2   1  -9  255.11   16.98
  -2  -1   9  252.66   19.22
   2   1  -8    7.92    3.21
  -2   1   8    6.49    3.34
  -2  -1   8    3.01    2.47
   2  -1  -8    2.50    2.36
  -2   1   7   50.22    7.94
  -2  -1   7   41.51    7.54
   2  -1  -7   51.87    8.28
   2   1  -7   52.50    7.20
  -2   1   6   53.66    7.81
  -2  -1   6   44.73    7.59
   2  -1  -6   55.59    8.39
   2   1  -6   50.06    7.20
  -2   1   5  201.42    9.63
  -2   1   5  205.75   14.89
  -2  -1   5  204.69   15.90
   2  -1  -5  232.91   17.10
   2  -1  -5  184.79   14.79
   2   1  -5  179.51   14.16
  -2   1   4   12.56    2.54
  -2   1   4    8.60    3.01
  -2  -1   4   10.32    3.64
   2  -1  -4    3.04    1.78
   2  -1  -4   13.38    4.68
  -2  -1   4   11.49    1.73
   2   1  -4   17.10    4.91
   2  -1  -3 2303.29   63.19
  -2   1   3 2369.65   61.39
  -2   1   3 2310.59   49.30
  -2  -1   3 2313.83   64.11
   2  -1  -3 2275.35   63.33
   2   1  -3 2209.74   61.87
  -2  -1   3 2233.12   46.30
   2  -1  -2   15.21    4.01
  -2   1   2   14.35    4.02
  -2  -1   2   11.94    3.63
  -2   1   2   18.38    2.80
   2  -1  -2   11.69    4.55
   2   1  -2   21.93    5.43
   2  -1  -1  632.17   26.65
  -2   1   1  704.43   26.61
  -2  -1   1  668.81   28.02
  -2   1   1  671.77   18.42
   2  -1  -1  712.81   29.06
   2  -1   0  272.17   16.12
  -2   1   0  286.65   15.41
  -2  -1   0  270.41   16.83
  -2   1   0  269.05    9.75
   2  -1   0  282.51   17.14
   2  -1   1  337.10   17.98
  -2  -1  -1  347.93   19.01
  -2   1  -1  339.75   10.83
  -2   1  -1  329.57   19.33
   2  -1   1  348.89   19.21
   2   1   1  336.22   10.64
  -2   1  -1  351.62   16.96
  -2   1  -2   28.55    2.73
   2  -1   2   26.09    4.59
  -2   1  -2   31.38    4.62
  -2  -1  -2   26.97    4.94
  -2   1  -2   27.44    5.65
   2   1   2   24.22    2.51
   2  -1   2   30.71    5.44
   2  -1   3 1621.34   46.16
  -2  -1  -3 1550.01   45.96
  -2   1  -3 1648.59   43.44
  -2   1  -3 1577.01   33.04
  -2   1  -3 1572.26   49.17
   2  -1   3 1571.09   47.29
  -2   1  -3 1586.38   38.66
  -2  -1  -4  282.56   16.27
  -2   1  -4  281.78   14.49
  -2   1  -4  285.96    8.28
   2  -1   4  282.64   16.02
  -2   1  -4  273.17   12.17
  -2   1  -4  274.02   17.54
   2  -1   4  260.78   16.02
  -2   1  -5  304.68   13.23
   2  -1   5  303.40   16.64
  -2   1  -5  324.42   10.62
  -2   1  -5  316.45    8.38
  -2  -1  -5  328.90   17.59
  -2   1  -5  319.67   15.24
  -2   1  -5  344.75   19.76
   2  -1   5  293.27   16.86
  -2   1  -6    2.88    0.66
  -2   1  -6    3.47    1.66
   2  -1   6    1.88    1.73
  -2  -1  -6    2.21    1.83
  -2   1  -6   -0.29    2.44
   2  -1   6    2.44    2.53
  -2   1  -6    3.26    1.31
   2  -1   7  213.32   13.96
  -2   1  -7  215.68   15.54
   2  -1   7  214.21   13.97
  -2   1  -7  210.32   10.97
  -2   1  -7  214.81    7.78
  -2  -1  -7  202.99    9.85
  -2  -1  -8   27.43    4.06
  -2   1  -8   25.80    3.72
  -2  -1  -8   24.76    3.22
  -2   1  -8   33.44    6.19
  -2  -1  -8   21.71    2.07
  -2   1  -8   28.02    2.61
  -2  -1  -9  446.21   14.87
  -2   1  -9  469.46   23.34
  -2   1  -9  477.07   12.86
  -2  -1  -9  472.63   18.74
  -2   1  -9  449.50   17.61
  -2  -1 -10    7.99    2.39
  -2   1 -10    8.97    2.61
  -2   1 -10   14.16    4.55
  -2  -1 -10    9.23    2.03
  -2  -1 -11  681.38   19.12
  -2   1 -11  641.04   28.29
  -2  -1 -11  718.19   24.41
  -2   1 -11  659.49   23.13
  -2  -1 -12   38.40    5.20
  -2  -1 -12   41.25    3.80
  -2   1 -12   38.86    6.47
  -2   1 -12   45.63    5.57
  -2   1 -13 1401.95   38.52
  -2  -1 -13 1332.65   32.07
  -2   1 -13 1239.23   42.68
  -2  -1 -13 1387.37   38.62
  -2   1 -14  195.63   11.99
  -2   1 -14  150.87   13.05
  -2  -1 -14  180.56    8.59
  -2  -1 -14  191.42   11.78
  -2   1 -15  328.35   16.21
  -2  -1 -15  319.39   12.23
  -2  -1 -15  342.31   16.40
  -2  -1 -16  312.32   15.99
  -2   1 -16  321.92   16.36
  -2  -1 -16  320.51   12.33
  -2   1 -17   61.91    7.13
  -2  -1 -17   70.01    5.44
  -2  -1 -17   70.49    7.40
  -2  -1 -18  145.72   11.01
  -2   1 -18  148.29   11.39
  -2  -1 -18  150.85    8.32
  -2  -1 -19  177.39   12.41
  -2   1 -19  171.93   12.52
  -2  -1 -20    8.40    3.33
  -2   1 -20    8.58    3.08
  -2  -1 -21  141.04   11.34
  -2   1 -21  146.22   11.86
  -2  -1 -22    0.07    2.04
  -2   1 -22    0.77    2.12
  -2   1 -23  136.62   11.95
  -2  -1 -23  131.77   11.62
  -2  -1 -24   15.57    4.02
  -2   2  23   18.59    9.80
  -2   2  22   97.46   18.22
  -2  -2  22   95.91   17.41
   2  -2 -22   99.50   14.11
  -2   2  21   46.86   11.71
  -2  -2  21   22.60    8.79
   2  -2 -21   23.76    6.98
  -2   2  20  169.01   22.21
  -2  -2  20  151.35   20.33
   2  -2 -20  136.98   16.13
  -2   2  19   38.92   10.55
  -2  -2  19   58.70   11.86
   2  -2 -19   37.52    8.13
  -2   2  18  198.32   22.35
  -2  -2  18  182.13   20.55
   2  -2 -18  153.81   16.41
  -2   2  17   36.69    9.60
  -2  -2  17   40.34    9.47
   2  -2 -17   42.49    8.48
  -2   2  16   11.28    4.97
  -2  -2  16   10.30    3.97
   2  -2 -16    6.98    4.08
  -2   2  15   55.60   10.51
  -2  -2  15   57.25   10.76
   2  -2 -15   59.99   10.05
  -2   2  14  331.80   25.32
  -2  -2  14  318.92   24.42
   2  -2 -14  322.08   22.88
  -2   2  13   32.63    2.82
  -2   2  13   39.22    8.72
  -2  -2  13   33.16    7.54
   2  -2 -13   41.30    8.09
  -2   2  12  694.92   35.19
  -2   2  12  563.41   15.11
  -2  -2  12  637.28   33.50
   2  -2 -12  633.32   31.79
  -2   2  11   48.28    9.08
  -2  -2  11   57.94    9.49
   2  -2 -11   52.20    9.11
  -2   2  10  383.54   24.47
  -2  -2  10  372.50   24.10
   2  -2 -10  358.58   23.29
  -2   2   9   14.88    4.78
  -2  -2   9   11.63    4.40
   2  -2  -9    8.66    4.34
  -2   2   8  233.47   17.06
  -2  -2   8  208.15   17.35
   2  -2  -8  224.33   17.61
  -2   2   7   19.61    4.82
  -2  -2   7    9.41    3.82
   2  -2  -7   22.33    5.99
  -2   2   6   67.60    8.60
  -2  -2   6   66.54    9.12
   2  -2  -6   66.66    9.66
  -2  -2   5  504.38   26.53
  -2   2   5  611.07   26.31
   2  -2  -5  597.87   28.99
  -2  -2   5  586.39   18.88
  -2   2   5  555.62   15.35
  -2   2   4 3191.00   78.02
  -2  -2   4 3196.61   82.59
   2  -2  -4 3349.65   84.82
  -2  -2   4 3171.16   66.88
  -2   2   4 3101.12   62.24
  -2   2   4 3121.88   66.00
   2  -2  -4 3355.07   81.86
  -2   2   3  228.82   14.44
  -2  -2   3  225.54   16.40
   2  -2  -3  246.05   16.29
   2  -2  -3  249.14   17.95
  -2   2   3  248.99   10.33
  -2  -2   3  234.65   10.35
   2  -2  -2 1216.16   39.93
  -2   2   2 1272.94   38.04
  -2  -2   2 1308.21   43.04
   2  -2  -2 1240.26   43.94
  -2   2   2 1265.88   29.65
  -2  -2   2 1179.74   30.09
  -2   2   2 1192.43   29.79
   2  -2  -1  496.66   22.28
  -2   2   1  500.45   20.60
  -2  -2   1  490.02   24.16
  -2   2   1  489.77   15.73
   2  -2  -1  475.74   24.97
  -2   2   1  497.03   14.90
   2  -2   0    9.01    2.77
  -2   2   0    9.21    1.98
  -2   2   0    9.02    2.49
  -2  -2   0    5.84    2.35
  -2   2   0   12.53    2.00
   2  -2   0   17.91    4.94
   2  -2   1  376.84   18.09
  -2   2  -1  397.73   17.11
  -2  -2  -1  407.59   21.26
  -2   2  -1  394.59   14.37
   2  -2   1  383.72   21.51
   2   2   1  372.54   13.95
  -2   2  -1  415.91   11.90
   2  -2   1  426.57   11.45
  -2   2  -1  401.76   14.29
   2  -2   2  631.10   24.14
  -2  -2  -2  595.24   26.35
  -2   2  -2  632.47   22.11
  -2   2  -2  636.14   15.70
   2  -2   2  656.39   28.15
   2  -2   2  657.65   16.75
   2   2   2  637.22   19.52
  -2   2  -2  654.06   19.16
  -2   2  -2  630.52   19.48
   2  -2   3  468.49   20.14
  -2   2  -3  483.25   15.69
  -2  -2  -3  468.26   22.96
  -2   2  -3  487.23   18.57
  -2   2  -3  498.53   12.05
   2  -2   3  454.73   22.83
   2   2   3  457.63   16.06
  -2   2  -3  470.71   16.39
   2  -2   4 1285.16   38.05
  -2  -2  -4 1300.70   41.69
  -2   2  -4 1352.29   35.37
  -2   2  -4 1291.34   25.56
   2  -2   4 1266.92   41.41
   2   2   4 1230.27   32.47
  -2   2  -4 1240.99   30.96
  -2   2  -4 1265.87   32.73
   2  -2   5  114.55    9.31
  -2  -2  -5  110.57   10.39
   2  -2   5  105.13   10.30
  -2   2  -5  104.70    6.55
  -2   2  -5  120.81    7.63
   2  -2   6  861.98   29.59
  -2  -2  -6  858.14   32.31
   2  -2   6  826.91   31.22
  -2   2  -6  898.54   23.25
  -2   2  -6  887.07   25.70
   2  -2   7  198.71   12.69
  -2  -2  -7  215.93   11.59
   2  -2   7  208.97   14.03
  -2  -2  -7  194.27    8.65
  -2   2  -7  221.28    9.40
  -2   2  -7  218.03   11.09
  -2  -2  -8  145.21    9.11
   2  -2   8  145.10   10.86
   2  -2   8  144.57   11.36
  -2  -2  -8  137.00    6.29
  -2   2  -8  157.58    7.79
  -2   2  -8  144.32    9.09
  -2   2  -9   21.86    3.53
   2  -2   9   16.12    3.72
  -2  -2  -9   19.95    3.13
   2  -2   9   23.40    5.05
  -2  -2  -9   20.11    2.01
  -2   2  -9   18.40    2.69
  -2   2 -10  255.42   13.06
  -2  -2 -10  254.38   11.82
  -2   2 -10  264.06   10.99
  -2  -2 -10  265.87   13.93
  -2  -2 -10  245.34    6.70
  -2  -2 -11    1.94    1.52
  -2   2 -11    0.78    1.21
  -2  -2 -11    0.87    1.57
  -2   2 -12  287.90   14.51
  -2  -2 -12  315.59   13.06
  -2  -2 -12  292.59   14.99
  -2   2 -13   45.27    5.74
  -2  -2 -13   50.61    4.96
  -2  -2 -13   46.32    5.75
  -2   2 -14  198.55   12.26
  -2  -2 -14  193.99   10.14
  -2  -2 -14  190.41   12.01
  -2  -2 -15    3.35    2.11
  -2  -2 -15    1.04    1.43
  -2   2 -15    0.64    1.32
  -2   2 -16  129.25   10.35
  -2  -2 -16  139.05    8.71
  -2  -2 -16  128.99    9.94
  -2  -2 -17    1.69    1.98
  -2   2 -17    1.25    1.83
  -2  -2 -17    2.66    1.80
  -2   2 -18  302.95   16.86
  -2  -2 -18  293.20   13.62
  -2  -2 -18  289.37   15.93
  -2  -2 -19    2.21    2.15
  -2   2 -19    1.12    2.15
  -2  -2 -19    6.46    2.89
  -2  -2 -20  462.92   21.41
  -2   2 -20  483.61   22.58
  -2  -2 -21    2.32    2.04
  -2   2 -21   -1.15    1.79
  -2  -2 -22   70.18    7.97
  -2   2 -22   66.20    8.28
  -2  -2 -23    3.45    2.89
  -2  -2 -24  149.45   12.31
   2  -3 -23  106.85   15.87
  -2   3  22  106.06   19.75
  -2  -3  22  138.71   19.84
   2  -3 -22  111.72   15.69
  -2   3  21   78.12   16.16
  -2  -3  21   51.67   12.22
   2  -3 -21   48.51   10.65
  -2   3  20   12.11    8.11
  -2  -3  20   10.51    6.34
   2  -3 -20   14.59    6.46
  -2   3  19  317.79   30.17
  -2  -3  19  275.02   25.91
   2  -3 -19  304.59   24.35
  -2   3  18    7.77    5.47
  -2  -3  18    5.44    4.72
   2  -3 -18    8.36    5.48
  -2   3  17  102.31   15.80
  -2  -3  17   65.20   12.15
   2  -3 -17   79.00    8.30
   2  -3 -16   54.90    6.81
  -2   3  16   57.20   11.40
  -2  -3  16   57.97   10.70
   2  -3 -15    2.78    2.49
  -2   3  15    6.66    5.11
  -2  -3  15    5.31    4.46
  -2   3  14   50.24   10.14
  -2  -3  14   45.94    9.16
   2  -3 -14   53.82    6.47
  -2   3  13  240.27   20.99
  -2  -3  13  246.00   20.89
   2  -3 -13  282.55   14.72
  -2  -3  12  104.97   13.23
  -2   3  12   95.85   12.75
   2  -3 -12  116.51    9.03
  -2   3  11  284.28   21.09
  -2  -3  11  252.38   20.10
   2  -3 -11  296.15   14.18
  -2   3  10    0.54    2.09
  -2   3  10    0.98    0.62
  -2  -3  10   -1.18    1.96
   2  -3 -10    1.44    2.28
  -2   3   9  510.27   27.24
  -2  -3   9  482.81   27.92
   2  -3  -9  519.52   19.40
  -2   3   9  518.70   12.87
  -2  -3   8   90.66   11.32
   2  -3  -8  102.56    7.72
  -2   3   8   73.67    9.68
  -2   3   8   91.12    4.33
  -2   3   7  656.66   29.11
  -2  -3   7  668.41   31.55
   2  -3  -7  654.28   21.41
  -2   3   7  650.16   20.35
  -2   3   7  626.63   15.86
  -2   3   6  101.44   10.25
  -2   3   6   87.72    4.58
   2  -3  -6   87.49    6.71
  -2  -3   6   80.06   10.19
  -2  -3   6   77.51    7.15
  -2   3   6   81.13    5.96
  -2   3   5  607.27   25.85
  -2  -3   5  586.13   29.27
   2  -3  -5  578.49   19.22
  -2  -3   5  591.79   21.39
  -2   3   5  611.18   18.54
  -2   3   5  629.90   21.90
  -2   3   5  578.75   15.65
  -2   3   4    7.41    2.72
  -2   3   4    7.08    1.48
  -2  -3   4   11.03    3.66
   2  -3  -4    8.91    4.42
   2  -3  -4   14.47    2.74
  -2   3   4    9.00    2.11
  -2  -3   4    6.65    1.88
  -2   3   4   10.05    3.53
  -2   3   3  833.89   28.52
  -2  -3   3  762.53   33.30
   2  -3  -3  800.19   22.55
  -2   3   3  825.33   22.96
   2  -3  -3  866.91   36.22
  -2  -3   3  755.96   24.77
  -2   3   3  800.79   25.31
  -2   3   3  806.36   20.68
  -2  -3   2   39.40    4.78
  -2   3   2   58.20    6.30
   2  -3  -2   52.52    4.74
  -2  -3   2   45.32    7.20
  -2   3   2   55.49    4.68
   2  -3  -2   57.66    9.10
  -2   3   2   46.85    5.55
  -2   3   2   58.74    4.30
  -2   3   1  734.08   24.24
  -2  -3   1  656.89   29.70
   2  -3  -1  707.18   19.90
  -2   3   1  733.82   19.97
   2  -3  -1  708.94   32.27
  -2   3   1  685.71   22.48
  -2   3   1  720.14   19.79
   2  -3  -1  775.84   27.67
  -2   3   0    4.54    1.54
   2  -3   0    1.72    1.61
  -2   3   0    1.99    1.26
  -2   3   0    2.73    1.54
  -2  -3   0    5.16    2.74
   2  -3   0    5.22    1.83
   2  -3   0    9.99    4.65
  -2   3   0    2.86    2.34
   2  -3   1  766.38   26.66
  -2   3  -1  736.66   23.28
  -2  -3  -1  751.39   31.28
  -2   3  -1  763.96   23.50
  -2   3  -1  783.74   19.71
   2  -3   1  745.42   19.81
   2  -3   1  770.27   32.80
   2  -3   1  837.52   21.59
  -2   3  -1  753.45   21.58
   2  -3   2   39.85    5.27
  -2   3  -2   47.02    3.45
  -2   3  -2   51.63    4.89
  -2   3  -2   52.74    5.30
  -2  -3  -2   43.96    6.78
   2   3   2   44.91    5.19
   2  -3   2   44.38    7.65
   2  -3   2   56.40    4.58
  -2   3  -2   46.13    4.47
  -2   3  -3  220.32   10.40
   2  -3   3  223.50   11.99
  -2   3  -3  222.32    7.77
  -2  -3  -3  199.78   14.91
  -2   3  -3  215.93   10.12
   2  -3   3  206.97   15.55
   2  -3   3  220.44   10.10
   2   3   3  195.66   11.18
  -2   3  -3  204.36   10.49
  -2   3  -4   89.19    6.56
   2  -3   4   80.88    7.14
  -2  -3  -4   95.24    9.99
   2  -3   4   80.96    9.61
   2   3   4   84.07    7.16
  -2  -3  -4   74.30    7.11
  -2   3  -4   92.74    6.80
  -2   3  -5  554.76   18.80
   2  -3   5  542.86   20.47
  -2   3  -5  555.78   18.83
  -2  -3  -5  540.89   25.67
   2  -3   5  554.75   25.47
  -2  -3  -5  512.08   19.02
  -2   3  -6  140.60    8.82
   2  -3   6  133.64    9.53
  -2  -3  -6  155.50   12.99
  -2   3  -6  136.65    8.41
   2  -3   6  140.20   12.04
  -2  -3  -6  128.44    8.09
  -2  -3  -7  520.65   21.37
  -2   3  -7  554.20   19.65
   2  -3   7  533.56   21.02
   2  -3   7  543.38   24.49
  -2  -3  -7  518.15   17.04
  -2   3  -7  556.32   19.00
  -2   3  -8   60.32    5.95
   2  -3   8   56.56    6.32
  -2  -3  -8   48.30    5.85
   2  -3   8   62.04    7.66
  -2   3  -8   61.96    5.79
  -2  -3  -8   54.64    4.44
  -2   3  -9   86.95    7.36
  -2  -3  -9   85.95    7.44
   2  -3   9  100.31    8.59
   2  -3   9   98.94    9.67
  -2  -3  -9   97.26    5.62
  -2   3  -9   92.55    7.21
  -2   3 -10   76.14    7.05
  -2  -3 -10   72.07    6.78
   2  -3  10   73.56    7.46
   2  -3  10   96.23    9.40
  -2   3 -10   94.51    7.43
  -2  -3 -10   73.34    4.43
   2  -3  11  131.63   10.26
  -2  -3 -11  145.45    9.65
  -2   3 -11  152.91   10.41
   2  -3  11  164.07   12.13
  -2  -3 -12    1.96    1.87
  -2   3 -12    4.14    2.18
  -2  -3 -12    1.69    1.57
  -2   3 -13  166.16   11.22
  -2  -3 -13  164.45   10.27
  -2  -3 -13  172.56   11.41
  -2  -3 -14    6.55    2.60
  -2  -3 -14    2.00    1.58
  -2   3 -14    2.15    2.23
  -2   3 -15  124.57   10.09
  -2  -3 -15  115.97    8.61
  -2  -3 -15  118.41    9.57
  -2  -3 -16   34.63    4.93
  -2  -3 -16   35.08    5.29
  -2   3 -16   35.56    5.49
  -2   3 -17  264.67   15.71
  -2  -3 -17  259.44   13.51
  -2  -3 -17  264.64   14.87
  -2  -3 -18    1.45    1.77
  -2   3 -18    3.82    2.18
  -2  -3 -18    7.84    2.96
  -2   3 -19  533.00   23.58
  -2  -3 -19  489.52   20.25
  -2  -3 -19  476.95   21.29
  -2  -3 -20    4.59    2.91
  -2   3 -20    7.62    3.77
  -2  -3 -20   11.49    3.48
  -2  -3 -21  169.66   12.43
  -2   3 -21  185.79   13.78
  -2  -3 -22   16.47    4.11
  -2  -3 -23  110.63   10.34
   2  -4 -23   16.70    7.11
  -2   4  22   61.97   15.74
  -2   4  22   40.41    7.27
  -2  -4  21   35.92   10.65
  -2   4  21   46.18    7.38
  -2   4  20  250.92   28.71
  -2  -4  20  217.98   23.41
   2  -4 -20  261.56   16.99
  -2   4  20  259.03   17.25
  -2   4  19   69.38   14.81
  -2  -4  19   71.31   12.90
   2  -4 -19   72.33    8.81
  -2   4  19   89.66    9.98
  -2   4  18  185.46   22.59
  -2  -4  18  168.44   19.52
   2  -4 -18  158.67   12.65
  -2   4  18  168.16   13.53
  -2   4  17  161.40   20.74
  -2  -4  17  160.45   18.39
   2  -4 -17  142.13   11.70
  -2   4  17  147.77   12.47
  -2   4  16  235.64   23.78
   2  -4 -16  212.28   14.04
  -2   4  16  217.46   14.89
  -2  -4  16  162.38   18.27
   2  -4 -15   24.10    4.72
  -2   4  15   27.07    7.96
  -2  -4  15   20.14    6.21
  -2   4  15   20.95    4.69
   2  -4 -14   82.69    8.36
  -2   4  14   80.16   13.14
  -2  -4  14   78.09   12.02
  -2   4  14   76.74    8.69
  -2   4  13   22.66    6.70
  -2  -4  13   21.76    6.32
   2  -4 -13   10.89    3.76
  -2   4  13   17.31    4.71
   2  -4 -12   89.37    8.24
  -2   4  12   90.48   12.63
  -2  -4  12   88.96   11.96
  -2   4  12   83.14    8.70
  -2   4  11   58.42    9.68
  -2  -4  11   40.98    8.28
   2  -4 -11   46.65    5.90
  -2   4  11   51.66    6.94
  -2   4  10  383.79   24.00
  -2  -4  10  349.70   24.10
   2  -4 -10  360.45   16.43
  -2   4  10  378.36   18.64
   2  -4  -9    7.70    2.55
  -2   4   9    6.04    3.41
  -2  -4   9    8.67    4.46
  -2   4   9    6.38    2.93
  -2   4   8  495.19   25.47
   2  -4  -8  469.30   18.44
  -2  -4   8  466.58   27.08
  -2  -4   8  472.78   21.23
  -2   4   8  521.52   21.45
  -2   4   7  110.01   11.01
   2  -4  -7  113.43    8.05
  -2  -4   7  101.08   12.03
  -2   4   7   83.46    3.14
  -2  -4   7   87.93    8.52
  -2   4   7  104.31    8.86
  -2   4   6  368.21   19.88
   2  -4  -6  336.21   14.30
  -2   4   6  311.58    8.96
  -2  -4   6  376.80   23.01
  -2  -4   6  385.70   17.99
  -2   4   6  353.85   15.25
  -2   4   6  370.16   17.06
  -2   4   5   11.21    3.25
  -2  -4   5    6.41    3.45
  -2   4   5    7.64    1.34
  -2   4   5    6.70    2.05
   2  -4  -5   10.54    2.92
  -2  -4   5    6.75    2.49
  -2   4   5    6.44    3.18
   2  -4  -4  354.45   13.95
  -2   4   4  327.12   10.57
  -2   4   4  354.79   17.44
  -2  -4   4  367.46   22.17
  -2  -4   4  357.06   17.01
  -2   4   4  352.53   16.28
  -2   4   3   21.27    2.49
  -2   4   3   20.97    3.76
  -2  -4   3   14.74    4.62
   2  -4  -3   25.78    3.66
  -2  -4   3   22.57    4.26
  -2   4   3   31.75    4.90
   2  -4  -2  806.48   22.59
  -2   4   2  753.40   20.40
  -2   4   2  793.80   24.52
  -2  -4   2  750.49   33.04
  -2  -4   2  773.85   27.01
  -2   4   2  798.50   26.08
  -2   4   1    4.19    1.74
  -2  -4   1    2.03    3.07
  -2   4   1    2.15    1.19
  -2   4   1    3.72    1.76
   2  -4  -1   11.74    2.50
  -2   4   1   10.25    3.01
   2  -4   0  266.03   10.79
  -2   4   0  275.81   11.10
  -2   4   0  284.45   11.65
  -2   4   0  298.92   11.48
  -2  -4   0  279.96   18.43
   2  -4   0  293.81   20.13
  -2   4   0  290.40   14.23
   2  -4   1   54.27    4.31
  -2   4  -1   49.28    4.48
  -2   4  -1   48.43    4.54
  -2   4  -1   50.45    4.01
  -2  -4  -1   52.74    7.72
   2  -4   1   47.86    8.12
   2  -4   1   53.79    5.34
  -2   4  -1   52.25    5.93
   2  -4   2  364.78   12.22
  -2   4  -2  380.59   14.37
  -2  -4  -2  367.98   21.31
   2  -4   2  351.61   21.92
   2  -4   2  423.38   16.12
  -2   4  -2  400.55   17.00
  -2   4  -2  410.78   14.07
   2  -4   3   17.10    2.97
  -2   4  -3   15.35    2.86
  -2  -4  -3   19.66    4.90
   2  -4   3   15.05    5.45
   2  -4   3   16.93    3.19
   2  -4   3   12.99    2.05
  -2   4  -3   17.99    3.99
   2  -4   4  495.11   16.93
   2  -4   4  472.78   13.08
  -2   4  -4  468.81   17.30
  -2  -4  -4  465.95   24.51
   2  -4   4  431.92   23.88
   2  -4   4  505.02   18.94
  -2   4  -4  508.42   19.61
   2  -4   5   15.73    2.82
   2  -4   5   16.26    1.77
  -2   4  -5   17.04    3.23
  -2  -4  -5   19.45    4.74
   2  -4   5   16.81    4.89
   2  -4   5   13.63    3.24
  -2   4  -5   22.08    3.92
   2  -4   6  229.25   10.98
  -2   4  -6  235.43   11.96
   2  -4   6  220.42   16.08
  -2   4  -6  246.49   13.22
  -2  -4  -6  210.56   13.94
   2  -4   7    4.41    1.60
  -2   4  -7    4.87    2.39
  -2  -4  -7    3.90    2.25
   2  -4   7    0.53    2.72
  -2   4  -7    6.34    2.56
  -2  -4  -8  385.37   18.70
  -2   4  -8  410.53   17.26
   2  -4   8  402.40   21.24
  -2   4  -8  420.13   18.29
  -2  -4  -8  378.82   14.92
  -2   4  -9   91.54    7.82
  -2  -4  -9   88.76    8.45
   2  -4   9   88.17    9.42
  -2   4  -9   87.57    8.18
  -2  -4  -9   86.56    6.32
  -2   4 -10   68.42    6.83
  -2  -4 -10   58.80    6.81
   2  -4  10   59.36    7.63
  -2   4 -10   66.93    7.34
   2  -4  11   44.83    6.69
  -2   4 -11   45.27    5.66
  -2  -4 -11   44.01    5.80
  -2   4 -12  149.22   10.76
  -2  -4 -12  146.56   10.65
   2  -4  12  160.91   12.49
  -2   4 -13   91.54    8.55
  -2  -4 -13   93.01    8.60
  -2  -4 -13   93.38    8.57
  -2   4 -14  466.06   20.61
  -2  -4 -14  425.61   19.00
  -2  -4 -14  426.03   19.38
  -2   4 -15  157.70   11.70
  -2  -4 -15  166.51   11.33
  -2  -4 -15  153.28   11.11
  -2   4 -16  238.05   14.74
  -2  -4 -16  237.33   14.00
  -2  -4 -16  243.94   14.29
  -2  -4 -17    3.51    2.32
  -2  -4 -17   -0.16    1.20
  -2   4 -17    0.68    1.46
  -2   4 -18  243.36   15.34
  -2  -4 -18  230.78   14.09
  -2  -4 -18  242.40   14.44
  -2  -4 -19   18.96    4.21
  -2  -4 -19   13.26    3.48
  -2   4 -19   13.87    3.61
  -2  -4 -20  151.46   11.54
  -2  -4 -20  169.79   12.14
  -2  -4 -21   28.01    4.91
  -2  -4 -21   27.85    5.45
  -2   5  21  155.44   25.25
  -2   5  20   22.67   10.45
  -2  -5  20   20.19    7.90
  -2   5  19  208.75   26.53
  -2  -5  19  167.79   20.46
  -2   5  19  156.59   13.89
   2  -5 -18   29.58    5.83
  -2   5  18   39.02   12.84
  -2  -5  18   38.13    9.65
  -2   5  18   26.56    5.98
   2  -5 -17  102.27   10.22
  -2   5  17  119.42   18.45
  -2  -5  17   80.21   13.21
  -2   5  17   81.77    9.90
  -2   5  16   43.41   11.47
  -2  -5  16   24.12    7.39
   2  -5 -16   28.72    5.49
  -2   5  16   35.48    6.71
   2  -5 -15   94.54    9.39
  -2   5  15  119.74   16.89
  -2  -5  15   97.90   14.34
  -2   5  15  117.51   11.19
  -2   5  14   48.94   10.73
  -2  -5  14   35.36    8.43
   2  -5 -14   51.05    6.77
  -2   5  14   52.65    7.79
  -2   5  13  188.95   19.35
   2  -5 -13  178.27   12.48
  -2  -5  13  180.11   18.41
  -2   5  13  164.85   13.33
   2  -5 -12    6.60    2.92
  -2   5  12    2.18    3.96
  -2  -5  12   11.24    5.51
  -2   5  12    7.11    3.73
  -2   5  11  532.18   30.69
   2  -5 -11  538.56   21.92
  -2  -5  11  482.80   29.93
  -2  -5  11  465.67   23.34
  -2   5  11  553.10   24.43
  -2   5  10    5.11    3.95
  -2  -5  10    8.09    4.92
   2  -5 -10    5.01    2.59
  -2  -5  10    2.53    2.65
  -2   5  10    5.05    3.26
  -2   5   9  255.05   18.64
  -2  -5   9  224.08   19.34
  -2  -5   9  232.81   15.86
  -2   5   9  244.06   15.28
   2  -5  -9  226.92   13.11
  -2   5   8   56.65    8.28
  -2  -5   8   53.59    9.24
   2  -5  -8   47.30    5.84
  -2  -5   8   47.95    6.78
  -2   5   8   43.72    6.40
  -2   5   7  205.33   14.76
  -2  -5   7  180.58   16.51
  -2  -5   7  171.93   13.03
  -2   5   7  179.44   12.78
   2  -5  -7  180.73   11.05
  -2   5   6   80.10    8.71
  -2  -5   6   72.97   10.15
  -2   5   6   66.18    7.78
  -2  -5   6   59.08    7.51
   2  -5  -6   80.62    7.07
  -2   5   5  384.08   18.48
  -2  -5   5  391.60   23.82
  -2  -5   5  352.05   18.91
  -2   5   5  362.67   18.13
   2  -5  -5  374.37   15.77
  -2   5   4   12.04    2.66
   2  -5  -4   11.37    2.87
  -2  -5   4    8.78    3.17
  -2   5   4    9.94    1.57
  -2  -5   4    8.83    3.30
  -2   5   4    8.24    3.71
  -2   5   3  278.42   12.12
  -2  -5   3  275.44   19.45
  -2   5   3  261.36    9.30
  -2  -5   3  285.95   16.54
  -2   5   3  292.79   15.61
   2  -5  -3  282.63   12.82
  -2   5   2   71.87    4.89
  -2   5   2   78.91    4.88
  -2  -5   2   71.49    9.44
  -2   5   2   77.28    7.89
   2  -5  -2   84.00    6.46
   2  -5  -1    2.09    1.63
  -2  -5   1    3.13    2.22
  -2   5   1    2.42    0.71
  -2   5   1    4.67    1.30
  -2   5   1    4.59    2.96
  -2   5   0   47.28    4.24
  -2  -5   0   41.28    6.88
   2  -5   0   47.83    4.74
  -2   5   0   60.17    7.05
  -2  -5  -1   15.60    4.46
  -2   5  -1   26.46    3.36
   2  -5   1   36.55    4.01
  -2   5  -1   30.25    5.11
  -2   5  -2  349.13   13.81
  -2  -5  -2  353.71   21.42
  -2   5  -2  393.87   18.48
   2  -5   2  388.37   17.26
   2  -5   2  364.31   13.14
  -2   5  -3  781.70   23.28
  -2  -5  -3  699.75   32.75
   2  -5   3  661.04   32.05
   2  -5   3  810.43   27.05
  -2   5  -3  778.13   27.95
   2  -5   3  759.34   20.57
  -2   5  -4  183.25   10.01
  -2  -5  -4  134.93   13.04
   2  -5   4  169.49    7.73
   2  -5   4  154.94   14.30
   2  -5   4  170.25   11.40
  -2   5  -4  190.89   12.87
  -2   5  -5 1109.39   30.83
   2  -5   5 1129.01   34.71
  -2   5  -5 1068.68   34.88
   2  -5   5 1103.64   25.48
  -2  -5  -5 1067.94   37.44
  -2   5  -6   55.06    5.74
  -2  -5  -6   32.68    6.16
   2  -5   6   40.89    7.56
   2  -5   6   49.84    6.54
   2  -5   6   43.93    3.24
  -2   5  -6   44.35    6.37
  -2  -5  -7  420.05   20.97
  -2   5  -7  440.84   17.92
   2  -5   7  406.93   23.06
   2  -5   7  472.01   21.06
  -2   5  -7  451.26   21.15
  -2   5  -8    4.41    2.33
  -2  -5  -8    0.11    1.71
   2  -5   8    1.37    2.53
  -2   5  -8   -1.11    1.74
  -2  -5  -9  178.24   12.88
  -2   5  -9  187.42   11.56
   2  -5   9  176.51   14.30
  -2   5  -9  207.05   14.22
  -2   5 -10   17.77    4.66
  -2   5 -10   17.45    3.56
   2  -5  10   23.96    5.41
  -2  -5 -10   16.67    4.37
  -2   5 -11  183.24   11.94
  -2  -5 -11  152.31   11.76
   2  -5  11  171.79   13.77
  -2   5 -12    2.46    2.00
  -2  -5 -12    4.12    2.25
  -2   5 -13  402.77   18.88
  -2  -5 -13  364.84   18.80
  -2   5 -14   67.03    7.61
  -2  -5 -14   70.69    8.06
  -2  -5 -14   63.81    7.22
  -2   5 -15  118.56   10.11
  -2  -5 -15  107.07    9.86
  -2  -5 -15  104.95    9.30
  -2  -5 -16    6.48    3.39
  -2  -5 -16    5.58    2.46
  -2   5 -16    4.22    2.60
  -2   5 -17  122.92   10.79
  -2  -5 -17  123.59   10.85
  -2  -5 -17  119.82    9.96
  -2  -5 -18    1.96    2.24
  -2  -5 -18    3.75    2.46
  -2   5 -18    3.40    2.57
  -2  -5 -19  112.99   10.59
  -2  -5 -20   14.45    4.20
  -2  -5 -21   78.12    9.12
  -2  -6  19   58.40   12.88
  -2  -6  18  402.16   32.01
  -2  -6  17   30.83    9.14
  -2  -6  16  120.36   16.70
   2  -6 -16  131.47   11.77
  -2   6  16  130.74   12.78
   2  -6 -15    7.80    3.54
  -2  -6  15   12.05    6.15
  -2   6  15    4.03    3.22
   2  -6 -14   79.60    8.76
  -2  -6  14   90.97   14.00
  -2  -6  14   84.21   10.63
  -2   6  14   83.72   10.32
  -2  -6  13   12.98    7.16
  -2  -6  13   13.94    4.75
   2  -6 -13   11.97    3.37
  -2   6  13   15.52    4.84
  -2  -6  12  212.76   20.52
  -2  -6  12  196.64   15.89
  -2   6  12  237.76   16.88
   2  -6 -12  202.02   13.84
  -2  -6  11    5.44    4.26
   2  -6 -11    1.91    2.94
  -2  -6  11    1.16    3.73
  -2   6  11    6.31    3.52
  -2  -6  10   82.81   12.47
  -2  -6  10   69.03    9.36
  -2   6  10   78.94    9.32
   2  -6 -10   67.55    7.60
  -2  -6   9   17.39    5.84
   2  -6  -9   16.34    3.91
  -2  -6   9   17.96    4.93
  -2   6   9   21.49    5.15
   2  -6  -8   20.67    4.46
  -2  -6   8   24.81    6.50
  -2   6   8   24.48    5.47
  -2  -6   8   31.95    6.05
   2  -6  -7   -0.46    2.05
  -2  -6   7   -0.77    1.76
  -2  -6   7    0.57    1.66
  -2   6   7    2.82    2.73
  -2  -6   6  183.30   16.76
  -2  -6   6  194.36   14.93
  -2   6   6  221.51   15.29
   2  -6  -6  217.33   12.54
  -2  -6   5   76.65   10.58
   2  -6  -5   75.40    7.23
  -2   6   5   74.26    8.69
  -2  -6   5   57.84    8.63
  -2  -6   4  282.23   20.17
  -2  -6   4  255.43   17.49
   2  -6  -4  307.29   14.58
  -2   6   4  290.63   17.48
   2  -6  -3   17.07    3.54
  -2  -6   3   11.09    4.12
  -2   6   3   18.66    5.06
  -2  -6   2   58.52    8.83
   2  -6  -2   78.51    6.87
  -2   6   2   75.60    8.70
  -2  -6   1   63.90    9.37
   2  -6  -1   66.84    6.38
  -2   6   1   70.07    8.38
  -2  -6   0  133.50   13.64
  -2   6   0  162.55    8.07
   2  -6   0  166.08    9.60
  -2   6   0  169.13   12.91
  -2  -6  -1    4.24    2.99
  -2   6  -1    5.60    1.66
   2  -6   1    5.05    2.63
  -2   6  -1   11.97    4.26
  -2  -6  -2  193.63   16.10
  -2   6  -2  188.58    9.89
  -2   6  -2  219.05   14.93
   2  -6   2  214.26   10.45
  -2  -6  -3   11.39    4.30
  -2   6  -3   10.43    2.40
   2  -6   3   10.97    2.72
  -2   6  -3    6.03    3.73
   2  -6   3    8.85    3.52
  -2   6  -4  384.15   15.64
   2  -6   4  402.01   19.89
  -2   6  -4  398.74   21.11
  -2  -6  -4  390.19   21.85
  -2  -6  -5    5.62    3.76
  -2   6  -5    8.74    2.69
   2  -6   5   10.00    4.57
   2  -6   5    8.78    3.42
  -2   6  -5    7.77    3.52
  -2  -6  -6  308.06   18.81
  -2   6  -6  315.42   14.50
   2  -6   6  306.17   21.21
   2  -6   6  329.01   18.33
  -2   6  -6  330.88   19.53
  -2   6  -7   16.04    3.33
  -2  -6  -7   15.46    4.19
   2  -6   7   21.04    5.99
   2  -6   7   19.68    4.79
  -2   6  -7   18.50    4.73
  -2   6  -8   10.13    3.02
   2  -6   8    7.71    3.92
  -2  -6  -8   10.27    3.62
  -2   6  -8   10.53    4.40
   2  -6   8   12.61    4.01
  -2  -6  -9  303.36   18.42
  -2   6  -9  307.07   15.37
   2  -6   9  302.58   20.44
   2  -6   9  318.72   19.57
  -2   6  -9  327.67   20.34
  -2  -6 -10  215.39   15.40
  -2   6 -10  231.75   13.40
   2  -6  10  258.15   17.63
  -2   6 -11   10.77    3.35
  -2  -6 -11    9.76    3.73
  -2   6 -12  578.42   23.39
  -2  -6 -12  575.13   25.83
  -2   6 -13   33.99    5.69
  -2  -6 -13   31.05    5.72
  -2   6 -14  216.10   14.05
  -2  -6 -14  212.84   15.05
  -2  -6 -14  204.29   13.53
  -2  -6 -15    7.33    3.74
  -2   6 -15    4.45    2.72
  -2   6 -16   98.56    9.70
  -2  -6 -16   89.04    9.79
  -2  -6 -17   -2.85    3.30
  -2  -7  14   -3.00    2.85
  -2  -7  13   44.16    9.85
   2  -7 -13   52.25    7.33
  -2  -7  13   48.53    8.81
  -2  -7  12    2.23    2.60
   2  -7 -12   11.54    3.83
  -2  -7  12    7.18    3.82
  -2  -7  11   91.33   13.71
   2  -7 -11   67.80    8.27
  -2   7  11  103.56   11.96
  -2  -7  11   72.55   10.19
   2  -7 -10    4.63    3.36
  -2  -7  10    2.25    3.44
  -2  -7  10    5.90    4.81
  -2   7  10    6.69    5.26
  -2  -7   9  321.18   24.34
  -2  -7   9  258.70   19.17
  -2   7   9  319.32   20.81
   2  -7  -9  300.98   16.80
   2  -7  -8    8.32    3.83
  -2  -7   8    0.73    2.76
  -2  -7   8   -0.30    1.87
  -2   7   8    2.81    3.56
  -2  -7   7  100.79   13.00
   2  -7  -7   81.61    8.17
  -2  -7   7   75.51   10.12
  -2   7   7   82.60   10.23
   2  -7  -6    5.74    3.35
  -2  -7   6    1.49    2.75
  -2   7   6    9.09    4.21
  -2  -7   6    0.71    2.25
   2  -7  -5   53.50    6.63
  -2  -7   5   36.26    7.39
  -2   7   5   47.40    8.10
  -2  -7   5   57.30    8.76
  -2  -7   4    1.14    1.63
  -2   7   4    8.44    4.61
   2  -7  -4    7.09    2.80
  -2  -7   3   71.91   10.25
   2  -7  -3   98.66    8.39
  -2   7   3  102.07   11.05
  -2  -7   2   16.30    5.49
   2  -7  -2   26.14    4.31
  -2   7   2   22.37    5.52
  -2  -7   1  141.14   14.10
   2  -7  -1  145.03   10.07
  -2   7   1  151.03   13.53
  -2  -7   0   56.00    8.90
   2  -7   0   57.75    6.14
  -2   7   0   66.48    9.15
  -2  -7  -1  361.23   22.87
   2  -7   1  395.57   16.51
  -2   7  -1  377.23   22.03
  -2  -7  -2   62.57    9.36
  -2   7  -2   77.85   10.05
  -2  -7  -3  176.60   15.40
  -2   7  -3  190.73   15.67
  -2  -7  -4   19.12    5.90
  -2   7  -4    9.55    2.80
   2  -7   4   18.81    4.82
  -2  -7  -5  168.81   14.65
   2  -7   5  183.05   14.41
  -2   7  -5  183.93   15.76
  -2  -7  -6    8.79    3.80
   2  -7   6   14.18    5.60
  -2   7  -6   18.41    5.27
   2  -7   6   16.79    4.82
  -2   7  -7   70.92    7.03
   2  -7   7   68.77   10.61
  -2  -7  -7   80.31    9.79
   2  -7   7   80.16    9.73
  -2   7  -7   73.75   10.55
  -2  -7  -8   87.14   10.42
  -2   7  -8   86.99    7.79
   2  -7   8   72.32    9.55
  -2   7  -8   76.21   10.65
  -2  -7  -9  136.29   12.86
  -2   7  -9  152.71   10.93
  -2   7 -10    6.71    3.31
  -2  -7 -10    6.49    3.73
   2  -7  10    7.61    4.08
  -2  -7 -11  256.22   17.68
  -2   7 -11  234.04   14.20
   2  -7  11  269.38   20.01
  -2   7 -12   27.57    5.11
   2  -7  12   27.18    6.56
  -2  -7 -12   24.58    5.62
  -2   7 -13   66.51    7.96
   2  -7  13   62.77   10.11
   2  -7  14   15.21    6.08
   2  -8  -9   16.33    4.73
   2  -8  -8   13.28    4.47
   2  -8  -7  104.11    9.90
   2  -8  -6   50.41    7.12
   2  -8  -5   10.50    3.46
   2  -8  -4  221.90   13.92
   2  -8  -3   63.79    7.51
  -2  -8   2  337.68   22.72
  -2  -8   1   94.06   12.39
  -2   8   1   78.45   11.64
  -2   8   0  191.92   17.08
  -2   8  -1    2.48    3.87
  -2   8  -2   30.90    7.12
  -2   8  -3   14.38    5.85
  -2   8  -4   88.47   11.82
  -2   8  -5   27.18    7.15
   2  -8   6   91.28   10.96
  -2   8  -6  108.09   13.55
  -2   8  -7    1.49    3.18
   2  -8   7   -1.88    2.59
   2  -8   8   20.98    6.15
   2  -8   9    1.37    2.92
   2  -8  10   97.36   12.40
   3   0 -20  156.66   18.46
  -3   0  19    6.05    5.29
   3   0 -19   -0.15    3.97
  -3   0  18   72.13   14.17
   3   0 -18   69.98   12.23
  -3   0  17   -1.27    2.56
   3   0 -17    2.21    3.98
  -3   0  16   21.15    7.42
   3   0 -16   40.17    9.42
  -3   0  15    4.67    4.88
   3   0 -15    2.86    4.14
  -3   0  14   19.20    6.82
   3   0 -14   13.08    6.22
  -3   0  13    2.79    4.57
   3   0 -13    6.93    5.63
  -3   0  12  272.30   24.05
   3   0 -12  230.45   20.86
  -3   0  11    1.74    2.79
   3   0 -11    9.38    4.65
  -3   0  10  122.28   15.15
   3   0 -10  107.58   14.11
  -3   0   9    0.38    2.27
   3   0  -9    0.33    3.25
  -3   0   8   24.43    6.80
   3   0  -8   14.93    5.63
  -3   0   7   -0.09    2.03
  -3   0   7    1.05    0.61
  -3   0   6  359.83   24.62
   3   0  -6  307.34   23.07
  -3   0   5    5.53    4.25
   3   0  -5   -3.06    3.04
  -3   0   4  495.47   28.35
   3   0  -4  451.96   27.73
  -3   0   3    1.49    2.95
   3   0  -3   -1.14    3.28
  -3   0   2  379.10   24.11
   3   0  -2  312.54   22.57
  -3   0   1    5.67    3.63
   3   0  -1   10.99    5.51
  -3   0   0  486.74   26.89
   3   0   0  446.54   27.18
  -3   0  -1    1.44    2.59
   3   0   1    7.91    5.22
  -3   0  -2  776.78   33.50
   3   0   2  706.07   34.56
  -3   0  -3    3.13    2.56
  -3   0  -4   78.37    9.66
   3   0   4   61.78    3.27
  -3   0  -5    1.66    1.65
  -3   0  -6   87.06   10.12
  -3   0  -6   81.97    7.93
  -3   0  -7   -1.22    1.71
  -3   0  -7   -0.48    1.76
  -3   0  -8  196.47   12.76
  -3   0  -8  171.15    7.52
  -3   0  -8  184.91    8.67
  -3   0  -9    1.06    2.01
  -3   0  -9   -0.26    1.12
  -3   0 -10  604.03   24.68
  -3   0 -11    8.24    3.74
  -3   0 -12 1099.82   36.27
  -3   0 -13    4.20    2.63
  -3   0 -14   67.64    8.01
  -3   0 -15    2.52    2.09
  -3   0 -16   22.94    4.91
  -3   0 -17    0.63    1.66
  -3   0 -18  204.13   15.05
  -3   0 -19    1.79    3.19
   3  -1 -21  154.42   19.22
   3  -1 -20    4.29    4.48
  -3   1  19   27.62    8.59
  -3  -1  19   29.41    8.92
   3  -1 -19   25.47    7.91
   3   1 -19   36.90    8.72
  -3   1  18   39.03    9.97
  -3  -1  18   67.16   13.75
   3  -1 -18   67.42   12.52
   3   1 -18   72.80   12.18
  -3   1  17   14.86    7.17
  -3  -1  17    4.23    4.54
   3  -1 -17    2.13    3.94
   3   1 -17   12.04    6.42
  -3   1  16    9.55    5.20
  -3  -1  16   -0.67    3.11
   3  -1 -16    3.43    4.46
   3   1 -16   11.99    5.81
  -3   1  15  240.78   23.41
  -3  -1  15  239.80   23.80
   3  -1 -15  269.61   23.23
   3   1 -15  259.44   21.98
  -3   1  14   15.94    6.40
  -3  -1  14   12.84    6.80
   3  -1 -14   16.41    7.18
   3   1 -14   11.49    6.23
  -3   1  13  293.69   25.13
  -3  -1  13  293.79   25.69
   3  -1 -13  310.86   24.96
   3   1 -13  275.37   22.38
  -3   1  12    5.24    4.98
  -3  -1  12    0.79    3.05
   3  -1 -12    3.46    4.15
   3   1 -12    3.44    4.05
  -3   1  11  141.29   16.55
  -3  -1  11  185.39   19.14
   3  -1 -11  153.28   17.09
   3   1 -11  149.90   16.03
  -3   1  10    9.97    5.07
  -3  -1  10    2.34    3.31
   3  -1 -10    3.07    4.46
   3   1 -10    2.30    5.41
  -3   1   9   80.41   12.23
  -3  -1   9   80.67   12.13
   3  -1  -9   93.73   13.19
   3   1  -9   68.24   11.10
  -3   1   8   48.32    8.94
  -3  -1   8   42.55    8.76
  -3  -1   8   48.00    4.30
   3  -1  -8   48.92    9.77
   3   1  -8   55.13    9.73
  -3   1   7   11.57    4.77
  -3  -1   7   16.79    5.74
   3  -1  -7    9.99    5.06
   3   1  -7    5.91    5.06
  -3  -1   7    8.01    1.72
  -3   1   6  109.63   13.07
  -3  -1   6  124.65   14.49
   3  -1  -6  127.18   15.08
  -3  -1   6  107.45    5.48
   3   1  -6  102.47   13.07
  -3   1   5  246.86   19.77
  -3  -1   5  237.21   20.07
   3  -1  -5  249.68   20.82
   3   1  -5  237.64   19.69
  -3   1   4   84.55   10.96
  -3  -1   4   99.99   12.58
   3  -1  -4   76.70   11.75
   3   1  -4   78.93   11.57
  -3   1   3  501.11   27.02
  -3  -1   3  471.73   28.00
   3  -1  -3  495.32   29.72
   3   1  -3  462.47   27.83
  -3   1   2    2.69    2.79
  -3  -1   2    1.83    2.65
   3  -1  -2    4.59    4.15
  -3   1   1  309.53   20.33
  -3  -1   1  297.24   21.48
   3  -1  -1  257.26   20.89
  -3   1   0   10.65    4.41
  -3  -1   0   10.20    4.71
   3  -1   0   19.09    6.54
  -3   1  -1  656.74   20.26
  -3   1  -1  695.09   30.59
  -3  -1  -1  695.07   32.97
   3  -1   1  609.92   32.97
  -3   1  -2   65.18    5.11
  -3  -1  -2   49.83    8.82
  -3   1  -2   59.66    8.20
   3  -1   2   56.70    9.66
  -3   1  -3  441.81   14.56
  -3  -1  -3  461.99   25.85
  -3   1  -3  460.50   23.57
   3  -1   3  432.66   26.31
  -3   1  -3  446.11   19.08
  -3   1  -4    1.93    1.56
  -3   1  -4   -0.19    1.02
  -3  -1  -4    0.33    2.08
  -3   1  -4   -1.46    1.78
  -3   1  -5  112.96    5.84
  -3  -1  -5  104.64   11.81
  -3   1  -5  113.27   11.09
   3  -1   5   98.24   12.17
  -3   1  -5  111.28    9.03
  -3   1  -5   99.62    6.70
  -3  -1  -6  141.64   13.71
  -3   1  -6  144.86   12.37
   3  -1   6  136.32   14.36
  -3   1  -6  147.48    7.83
  -3   1  -6  127.44    9.89
  -3  -1  -7  203.98   16.25
  -3   1  -7  194.10    8.85
  -3   1  -7  182.69   12.13
  -3  -1  -8   -1.25    1.66
  -3   1  -8    1.73    2.11
  -3  -1  -8    0.40    1.66
  -3   1  -8    2.81    1.63
  -3  -1  -9  221.12   10.91
  -3   1  -9  220.49    9.12
  -3  -1  -9  241.02   14.65
  -3   1  -9  229.98   13.89
  -3  -1 -10   58.30    5.24
  -3  -1 -10   64.85    7.52
  -3   1 -10   56.92    6.81
  -3  -1 -11  311.11   12.42
  -3  -1 -11  307.09   17.26
  -3   1 -11  310.44   16.76
  -3  -1 -12   10.33    3.57
  -3   1 -12    5.03    2.65
  -3  -1 -13   80.79    8.73
  -3   1 -13   60.54    7.37
  -3  -1 -14   66.97    8.26
  -3   1 -14   66.53    7.85
  -3  -1 -15   26.54    5.16
  -3   1 -15   24.73    5.23
  -3  -1 -16    0.52    1.36
  -3   1 -16    4.26    2.41
  -3   1 -17  212.67   15.04
  -3  -1 -17  208.68   14.90
  -3  -1 -18   24.67    5.45
  -3   1 -18   39.58    6.59
  -3  -1 -19  148.13   12.97
   3  -2 -22   85.52   14.39
   3  -2 -21    8.67    5.87
   3  -2 -20   76.11   13.91
  -3   2  19    6.15    6.15
   3  -2 -19    1.97    4.44
  -3   2  18    8.58    6.04
  -3  -2  18    6.75    5.44
   3  -2 -18   11.91    5.73
  -3   2  17   92.14   15.31
  -3  -2  17   97.42   15.73
   3  -2 -17  107.85   15.54
  -3   2  16   46.84   10.97
  -3  -2  16   31.75    8.91
   3  -2 -16   52.42   11.47
  -3   2  15   13.80    6.73
  -3  -2  15   14.51    7.44
   3  -2 -15   16.68    7.55
  -3   2  14  451.16   31.35
  -3  -2  14  440.35   32.50
   3  -2 -14  479.71   32.67
  -3   2  13   58.85   11.63
  -3  -2  13   49.44   10.50
   3  -2 -13   52.88   11.05
  -3   2  12   61.13   10.78
  -3  -2  12   48.25   10.23
   3  -2 -12   74.53   12.92
  -3   2  11   54.51   10.19
  -3  -2  11   44.22   10.25
   3  -2 -11   50.73   10.51
  -3   2  10  172.19   17.53
  -3  -2  10  170.03   18.47
   3  -2 -10  179.87   19.00
  -3   2   9   68.05   11.06
  -3  -2   9   73.84   12.14
  -3  -2   9   69.45    6.42
   3  -2  -9   88.30   13.26
  -3   2   8  173.84   16.98
  -3  -2   8  178.17   18.47
   3  -2  -8  177.60   18.76
  -3  -2   8  175.06    9.90
  -3   2   7   11.21    4.76
  -3  -2   7    2.41    2.53
   3  -2  -7   12.55    6.10
  -3  -2   7    8.51    2.05
  -3   2   6  258.47   19.78
  -3  -2   6  254.38   21.35
   3  -2  -6  262.48   22.35
  -3  -2   6  244.32   11.06
  -3   2   5   55.40    8.95
  -3  -2   5   53.78    9.94
   3  -2  -5   55.53   10.32
  -3   2   4  689.38   32.73
  -3  -2   4  704.65   36.32
   3  -2  -4  726.89   37.90
  -3   2   3   12.84    4.65
  -3  -2   3   20.40    6.38
   3  -2  -3   24.75    7.78
  -3   2   2   51.92    8.02
  -3  -2   2   53.11    9.39
   3  -2  -2   56.21   10.40
  -3   2   2   56.61    5.87
  -3   2   1   88.11   10.14
  -3  -2   1   76.73   11.20
   3  -2  -1   99.09   13.14
  -3   2   1   83.15    7.17
  -3   2   0  179.32   14.36
  -3  -2   0  171.62   16.56
   3  -2   0  162.33   16.54
  -3   2   0  185.80    9.16
  -3   2   0  165.40   10.43
  -3   2  -1   13.28    3.20
  -3   2  -1    9.20    3.65
  -3  -2  -1   15.11    5.07
   3  -2   1   17.91    6.67
  -3   2  -1   14.80    2.56
  -3  -2  -2   99.28   12.09
  -3   2  -2   99.37   10.14
  -3   2  -2  104.58    6.07
   3  -2   2   97.05   12.80
  -3   2  -2  101.09    8.19
  -3   2  -2   92.21    7.34
  -3   2  -3    3.37    1.81
  -3  -2  -3    1.39    2.23
  -3   2  -3    4.85    2.64
  -3   2  -3    2.33    1.27
   3  -2   3    2.79    3.41
  -3   2  -3    4.23    2.28
  -3  -2  -4  119.51   13.19
  -3   2  -4  114.20   10.57
   3  -2   4  115.90   13.80
  -3   2  -4  114.41    7.75
  -3   2  -4  114.00    8.85
  -3   2  -5    2.47    1.73
  -3  -2  -5    1.05    2.16
  -3   2  -5    6.06    2.97
   3  -2   5    4.96    4.12
   3  -2   5    2.70    0.94
  -3   2  -5    6.77    2.46
  -3  -2  -6  347.68   22.74
   3  -2   6  294.12   21.41
  -3   2  -6  343.72   13.89
  -3   2  -6  352.59   16.62
  -3   2  -7    3.17    2.13
  -3  -2  -7    4.33    3.45
  -3   2  -7    1.53    1.94
   3  -2   8  214.05   17.89
  -3   2  -8  226.07   10.75
  -3   2  -8  234.71   13.60
  -3  -2  -8  237.31   13.34
  -3   2  -9    3.79    2.42
  -3  -2  -9    1.41    1.74
  -3   2  -9    3.63    2.08
  -3  -2 -10  218.08   12.05
  -3  -2 -10  219.76   14.61
  -3   2 -10  210.14   13.49
  -3  -2 -11   14.58    4.02
  -3   2 -11   11.35    3.40
  -3  -2 -11   13.51    3.05
  -3   2 -12  112.67    9.99
  -3  -2 -12  124.78    8.47
  -3  -2 -12  120.86   10.99
  -3  -2 -13    0.56    1.84
  -3   2 -13    3.26    2.76
  -3  -2 -13    2.32    1.84
  -3   2 -14  257.20   15.88
  -3  -2 -14  248.24   16.07
  -3  -2 -15    0.41    2.24
  -3   2 -15    3.13    2.73
  -3   2 -16  268.25   17.13
  -3  -2 -16  262.87   16.87
  -3  -2 -17   21.01    5.17
  -3   2 -17   20.75    4.83
  -3  -2 -18  119.10   11.41
  -3   3  19  145.67   20.52
   3  -3 -19  188.45   22.03
  -3   3  18   55.38   12.15
   3  -3 -18   57.23   12.47
  -3   3  17  102.81   16.23
  -3  -3  17   99.32   15.89
   3  -3 -17   82.70   14.17
  -3   3  16   11.64    6.11
  -3  -3  16   14.63    6.68
   3  -3 -16   13.16    6.93
  -3   3  15   73.18   12.43
  -3  -3  15   88.27   14.17
   3  -3 -15   50.79   11.43
  -3   3  14    4.72    3.98
  -3  -3  14   -2.57    3.63
   3  -3 -14   -1.02    4.00
  -3   3  13  147.35   17.34
  -3  -3  13  149.33   17.96
   3  -3 -13  121.62   16.90
  -3   3  12   20.47    6.85
  -3  -3  12   20.40    7.47
   3  -3 -12   34.13    9.54
  -3  -3  11  113.82   15.11
  -3   3  11   96.39   13.42
  -3  -3  11  115.08    9.59
   3  -3 -11  135.32   17.39
  -3   3  10   19.03    5.79
  -3  -3  10   32.97    8.62
   3  -3 -10   23.19    7.87
  -3  -3  10   21.35    4.31
  -3   3   9  216.69   18.96
  -3  -3   9  195.59   19.70
   3  -3  -9  179.47   20.11
  -3  -3   9  170.09   11.38
  -3   3   8   33.04    7.42
  -3  -3   8   27.31    7.52
   3  -3  -8   38.27    9.85
  -3   3   8   40.62    4.35
  -3  -3   8   29.27    4.38
  -3   3   7  316.23   22.14
  -3  -3   7  327.38   25.14
   3  -3  -7  340.57   26.96
  -3  -3   7  314.06   14.96
  -3   3   7  349.48   13.89
  -3   3   6  165.95   15.41
  -3  -3   6  194.83   19.26
   3  -3  -6  150.74   17.96
  -3  -3   6  149.19    9.94
  -3   3   6  156.63    9.02
  -3   3   5  670.07   31.84
  -3  -3   5  687.35   36.61
   3  -3  -5  714.09   39.26
  -3   3   5  701.48   22.17
  -3   3   4   11.41    2.70
  -3   3   4    8.51    4.21
  -3  -3   4   15.01    5.56
   3  -3  -4   16.57    6.96
  -3   3   3   53.32    7.91
  -3  -3   3   64.65   10.71
   3  -3  -3   54.03   10.63
  -3   3   3   51.34    5.29
  -3   3   3   53.57    6.79
  -3   3   2  112.12   11.13
  -3  -3   2  126.23   14.72
   3  -3  -2  117.63   15.22
  -3   3   2  118.70    9.50
  -3   3   2  120.88    8.22
  -3   3   1    5.22    2.08
  -3   3   1    1.36    1.99
  -3  -3   1   -3.91    3.64
   3  -3  -1    3.18    3.83
  -3   3   1    5.97    3.13
  -3   3   0    8.25    2.27
  -3   3   0    6.47    2.61
  -3  -3   0   10.33    3.96
   3  -3   0   14.99    5.98
  -3   3   0    8.65    2.82
  -3  -3  -1  180.64   16.99
  -3   3  -1  179.55   13.05
   3  -3   1  194.37   18.66
  -3   3  -1  195.06   11.50
  -3   3  -1  214.41   11.61
  -3   3  -2   29.20    4.29
  -3  -3  -2   26.79    6.56
  -3   3  -2   22.90    4.60
   3  -3   2   23.73    7.51
  -3   3  -2   29.37    4.42
  -3  -3  -3  265.16   20.52
  -3   3  -3  235.15   14.54
   3  -3   3  266.56   21.31
  -3   3  -3  251.74   13.08
  -3   3  -3  249.32   13.13
  -3   3  -4   25.38    4.31
  -3  -3  -4   23.13    5.94
  -3   3  -4   24.76    4.70
   3  -3   4   24.08    6.71
  -3   3  -4   28.99    4.63
  -3  -3  -5  411.94   25.55
   3  -3   5  397.92   25.77
  -3   3  -5  419.33   17.05
  -3   3  -5  390.01   17.63
  -3   3  -6    4.93    2.36
  -3  -3  -6    2.08    2.46
   3  -3   6    0.54    3.40
  -3   3  -6    6.75    2.69
  -3  -3  -7   47.51    8.82
   3  -3   7   49.45    8.60
  -3   3  -7   56.92    5.96
  -3   3  -7   51.64    6.20
  -3   3  -8    0.55    1.49
  -3  -3  -8   -0.50    1.49
   3  -3   8    5.89    4.65
  -3   3  -8    3.67    2.94
  -3   3  -9   27.90    4.79
  -3  -3  -9   23.85    4.54
   3  -3   9   31.40    7.26
  -3   3  -9   26.87    4.31
  -3   3 -10    1.82    1.93
  -3  -3 -10   -1.89    1.90
   3  -3  10    4.85    3.78
  -3   3 -11  417.47   19.92
  -3  -3 -11  396.24   18.15
  -3   3 -12   89.51    9.15
  -3  -3 -12   95.49    8.40
  -3  -3 -12   90.16    9.51
  -3   3 -13  338.30   18.44
  -3  -3 -13  318.00   15.71
  -3  -3 -13  353.00   19.49
  -3  -3 -14   42.10    5.45
  -3  -3 -14   45.83    6.75
  -3   3 -14   40.62    6.43
  -3   3 -15   98.80   10.12
  -3  -3 -15  106.48   10.71
  -3  -3 -16    2.23    2.63
  -3   3 -16    2.15    2.14
  -3  -3 -17  219.82   15.75
  -3  -3 -18    2.40    2.62
  -3   4  19   18.24    8.74
  -3   4  18   71.73   14.03
  -3   4  17   28.62    8.96
  -3   4  16  101.28   15.76
  -3  -4  16   92.81   14.58
   3  -4 -16  122.40   17.84
  -3   4  15    6.74    4.66
  -3  -4  15   10.20    5.70
   3  -4 -15    3.27    4.72
  -3   4  15    6.36    4.40
  -3   4  14   85.03   13.77
  -3  -4  14   78.53   13.09
   3  -4 -14   82.02   14.48
  -3   4  14   91.40   10.81
  -3   4  13   37.04    8.69
  -3  -4  13   21.64    6.64
   3  -4 -13   18.31    7.38
  -3  -4  13   26.45    5.18
  -3   4  13   30.71    6.73
  -3   4  12  127.44   15.72
  -3  -4  12  113.75   15.51
  -3  -4  12  100.22    9.93
   3  -4 -12  129.98   18.22
  -3   4  12  117.37   11.88
  -3   4  11    2.96    2.79
  -3  -4  11   -0.95    3.14
   3  -4 -11    4.70    5.86
  -3  -4  11    1.49    1.92
  -3   4  11    7.20    4.06
  -3   4  10  118.05   14.56
  -3  -4  10   94.39   13.92
   3  -4 -10  106.04   15.67
  -3  -4  10  104.82    9.92
  -3   4  10  124.06   11.88
  -3   4   9   22.25    6.08
  -3  -4   9   18.71    6.36
   3  -4  -9   27.49    8.81
  -3  -4   9   18.37    4.19
  -3   4   9   22.87    5.21
  -3   4   8  163.44   16.07
  -3  -4   8  147.13   16.98
   3  -4  -8  143.63   18.26
  -3  -4   8  155.84   11.53
  -3   4   8  146.70   12.51
  -3   4   7    8.05    3.76
  -3  -4   7   11.20    5.06
  -3  -4   7    9.33    3.25
  -3   4   7    5.82    3.82
  -3   4   6  258.16   18.66
  -3  -4   6  205.97   20.45
   3  -4  -6  236.23   22.83
  -3  -4   6  209.21   13.31
  -3   4   6  232.71   15.15
  -3   4   5    2.25    1.98
  -3   4   5   -0.89    0.72
  -3  -4   5    4.39    4.59
   3  -4  -5    2.89    4.44
  -3   4   5    3.96    3.97
  -3   4   4  162.09   13.30
  -3  -4   4  154.75   16.86
   3  -4  -4  142.09   17.41
  -3   4   4  170.24   12.40
  -3   4   4  137.71    8.05
  -3   4   3    2.35    1.52
  -3   4   3    1.45    1.51
  -3  -4   3    7.72    4.66
   3  -4  -3   10.15    5.89
  -3   4   3    2.50    2.65
  -3   4   2    9.37    2.32
  -3   4   2   13.02    3.54
  -3  -4   2   11.44    4.30
   3  -4  -2    8.92    5.49
  -3   4   2   13.64    3.78
  -3   4   1  172.22   12.21
  -3  -4   1  161.63   16.63
   3  -4  -1  192.98   19.61
  -3   4   1  182.52   12.33
  -3   4   1  187.30   10.28
  -3   4   0    5.78    2.15
  -3  -4   0    1.11    3.10
  -3   4   0    2.74    1.58
   3  -4   0    8.14    5.69
  -3   4   0    5.56    3.00
  -3   4  -1   49.80    5.40
  -3   4  -1   49.86    6.09
  -3  -4  -1   48.63    9.26
   3  -4   1   51.93   10.23
  -3   4  -1   55.83    6.76
  -3   4  -2  710.04   23.93
  -3  -4  -2  701.54   35.61
  -3   4  -2  686.88   24.44
   3  -4   2  669.02   36.14
  -3   4  -2  683.26   25.54
  -3   4  -3  201.99   11.79
  -3  -4  -3  192.46   17.82
   3  -4   3  180.79   18.06
  -3   4  -3  180.12   12.03
  -3   4  -4  639.59   23.40
  -3  -4  -4  647.20   33.59
   3  -4   4  614.51   33.80
  -3   4  -4  687.26   25.08
  -3   4  -5   10.38    3.29
  -3  -4  -5    8.97    4.34
   3  -4   5   12.95    5.35
  -3   4  -5   11.44    3.79
  -3   4  -6   82.13    7.87
  -3  -4  -6   84.47   11.84
   3  -4   6   88.54   11.96
  -3   4  -6   84.27    8.10
  -3  -4  -7   40.40    6.64
  -3   4  -7   48.10    6.13
   3  -4   7   47.74    8.93
  -3   4  -7   41.64    5.78
  -3   4  -8   48.37    6.16
  -3  -4  -8   37.06    6.09
   3  -4   8   45.35    8.70
  -3   4  -8   42.05    5.76
  -3   4  -9    4.00    2.53
  -3  -4  -9   -0.42    1.88
   3  -4   9    2.32    3.29
  -3   4  -9    9.33    3.16
  -3   4 -10   89.14    8.83
  -3  -4 -10   91.10    9.27
   3  -4  10   91.83   12.17
  -3   4 -11   16.30    3.99
  -3  -4 -11   15.22    4.19
   3  -4  11   13.23    4.82
  -3   4 -12  227.85   15.05
  -3  -4 -12  226.69   14.22
  -3  -4 -13   51.81    7.65
  -3   4 -13   45.74    6.80
  -3  -4 -13   48.04    6.56
  -3   4 -14   78.64    9.05
  -3  -4 -14   63.70    7.51
  -3  -4 -14   82.12    9.34
  -3  -4 -15    3.99    2.85
  -3  -4 -15    2.18    2.17
  -3   4 -15    1.62    2.59
  -3  -4 -16  135.56   12.34
  -3  -4 -17   15.16    4.33
  -3  -5  15   37.46    7.01
  -3  -5  14   20.64    7.27
  -3  -5  14   25.95    5.62
  -3  -5  13   55.59   11.33
   3  -5 -13   55.72   12.96
  -3  -5  13   66.68    8.96
  -3  -5  12    7.87    5.18
   3  -5 -12   -3.28    3.83
  -3  -5  12    3.73    2.25
  -3  -5  11   48.49   10.40
   3  -5 -11   58.55   13.23
  -3  -5  11   50.43    7.37
  -3   5  11   57.27    8.63
  -3  -5  10   27.50    7.72
   3  -5 -10   27.53    9.27
  -3  -5  10   11.79    4.21
  -3   5  10   13.61    4.69
  -3  -5   9   39.11    8.95
   3  -5  -9   44.26   11.09
  -3  -5   9   38.92    6.49
  -3   5   9   32.78    6.38
  -3  -5   8   27.14    7.86
   3  -5  -8   31.06    9.73
  -3  -5   8   37.73    6.66
  -3   5   8   44.48    7.12
  -3  -5   7  198.20   20.17
   3  -5  -7  233.86   24.24
  -3  -5   7  201.50   14.44
  -3   5   7  216.83   15.49
  -3  -5   6   46.96    9.87
   3  -5  -6   45.42   11.44
  -3   5   6   39.97    6.58
  -3  -5   5  176.95   18.72
   3  -5  -5  175.85   20.49
  -3   5   5  186.92   13.94
  -3  -5   4    0.29    2.77
   3  -5  -4    3.73    5.17
  -3   5   4    5.20    3.38
  -3  -5   3  163.23   17.63
   3  -5  -3  196.57   21.05
  -3   5   3  164.16   12.67
  -3  -5   2   12.95    5.21
   3  -5  -2   15.30    6.47
  -3   5   2    4.82    2.69
  -3   5   1   69.30    5.95
  -3  -5   1   74.24   11.49
   3  -5  -1   64.70   12.03
  -3   5   1   70.30    8.18
  -3   5   0    4.66    2.01
  -3  -5   0   12.64    5.20
   3  -5   0    3.04    5.47
  -3   5   0   15.52    4.15
  -3   5  -1   81.62    6.98
  -3  -5  -1   86.75   12.18
   3  -5   1   75.38   12.66
  -3   5  -1   94.87    9.53
  -3   5  -2   18.32    3.59
  -3  -5  -2   15.62    5.40
   3  -5   2   23.38    6.65
  -3   5  -2   24.27    5.05
  -3   5  -3  227.57   12.75
  -3  -5  -3  245.88   20.45
   3  -5   3  234.08   20.93
  -3   5  -3  277.41   16.22
  -3   5  -4   69.21    6.92
  -3  -5  -4   51.71    9.83
   3  -5   4   56.03   10.53
  -3   5  -4   72.91    8.49
  -3   5  -5  129.81    9.85
  -3  -5  -5  118.34   13.99
   3  -5   5  110.20   13.93
  -3   5  -5  121.58   10.85
  -3  -5  -6   -1.81    2.56
  -3   5  -6    3.70    2.20
   3  -5   6    9.77    4.71
  -3   5  -6    5.15    3.45
  -3  -5  -7  269.47   17.96
  -3   5  -7  274.53   15.46
   3  -5   7  243.35   20.60
  -3   5  -7  288.25   16.93
  -3   5  -8   38.14    5.80
  -3  -5  -8   30.10    6.26
   3  -5   8   36.94    7.94
  -3   5  -8   40.19    6.40
  -3  -5  -9  159.36   13.20
  -3   5  -9  169.65   12.47
   3  -5   9  198.56   18.19
  -3   5  -9  183.56   13.50
  -3   5 -10   13.19    3.75
  -3  -5 -10   24.37    5.23
  -3   5 -11   56.13    7.34
  -3  -5 -11   59.29    7.73
  -3   5 -12    3.08    1.72
  -3  -5 -12   14.39    4.09
  -3   5 -13   54.65    7.49
  -3  -5 -13   51.66    7.25
  -3  -5 -14    1.10    2.30
  -3   5 -14   -1.17    1.66
  -3  -5 -14    5.36    2.88
  -3  -5 -15   44.50    6.86
  -3  -5 -15   49.41    7.44
  -3  -6  14   59.81    9.85
  -3  -6  13   -0.93    2.64
   3  -6 -12  125.15   11.40
  -3  -6  12  123.01   12.59
  -3  -6  11    0.12    2.32
   3  -6 -11    2.72    2.91
  -3  -6  11    2.42    3.49
   3  -6 -10   53.48    7.36
  -3  -6  10   50.95   10.83
  -3  -6  10   37.29    6.98
  -3  -6   9    8.13    4.30
  -3  -6   9    8.91    3.78
   3  -6  -9   19.55    4.65
  -3  -6   8   15.98    5.76
   3  -6  -8   27.26   10.26
   3  -6  -8   18.23    4.15
  -3  -6   8   13.27    4.06
  -3   6   8   21.83    5.30
  -3  -6   7    0.48    2.42
   3  -6  -7    7.20    5.85
   3  -6  -7    2.35    2.41
  -3   6   7    6.87    4.17
   3  -6  -6   67.88    7.58
  -3  -6   6   95.29   14.09
   3  -6  -6   90.88   15.86
  -3   6   6   78.87    9.91
  -3  -6   5    4.74    3.79
   3  -6  -5    7.24    4.93
   3  -6  -5    5.98    2.69
  -3   6   5    0.35    2.28
  -3  -6   4   70.10   11.91
   3  -6  -4   66.88   13.58
  -3   6   4   89.73   10.18
  -3  -6   3   83.54   12.77
   3  -6  -3   92.29   15.58
  -3   6   3  106.85   11.50
  -3  -6   2  114.92   14.84
   3  -6  -2  114.05   16.80
  -3   6   2  132.26   12.33
  -3  -6   1  114.61   14.51
   3  -6  -1  103.12   16.18
  -3   6   1  109.98   11.89
  -3  -6   0  324.49   24.82
   3  -6   0  369.04   28.76
  -3   6   0  393.55   21.50
  -3  -6  -1   13.61    7.55
   3  -6   1    2.24    5.64
  -3   6  -1    7.54    4.50
  -3  -6  -2  163.60   16.93
   3  -6   2  151.12   18.00
  -3   6  -2  171.14   13.95
  -3  -6  -3    4.08    4.06
   3  -6   3    1.06    3.62
  -3   6  -3   10.66    4.92
  -3   6  -4  123.78    9.30
  -3  -6  -4  117.17   14.41
   3  -6   4  112.31   14.89
  -3   6  -4  135.51   12.52
  -3  -6  -5   -0.33    2.82
  -3   6  -5    1.30    1.76
   3  -6   5    5.00    4.66
  -3   6  -5    1.35    2.87
  -3  -6  -6  129.94   12.99
  -3   6  -6  110.73    9.34
   3  -6   6   97.64   13.74
  -3   6  -7   38.99    5.90
  -3  -6  -7   33.85    6.84
   3  -6   7   40.29    9.03
  -3   6  -7   44.06    7.20
  -3   6  -8   52.47    6.59
  -3  -6  -8   42.17    7.25
  -3   6  -8   49.34    7.74
  -3   6  -9   24.85    5.02
  -3  -6  -9   20.97    5.04
  -3   6  -9   22.07    6.53
  -3   6 -10   84.17    8.80
  -3  -6 -10   74.25    9.40
  -3   6 -11   18.90    4.56
  -3  -6 -11   17.31    5.46
  -3   6 -12   46.09    7.02
  -3  -6 -12   51.87    7.94
   3  -7 -10   14.22    4.45
  -3  -7  10   16.20    5.52
   3  -7  -9  101.31   10.48
  -3  -7   9   78.03   10.60
  -3  -7   7   32.35    8.47
  -3  -7   6   18.46    6.74
  -3  -7   5  130.08   16.54
  -3  -7   4  136.57   16.91
  -3  -7   3  162.01   17.85
  -3  -7   2   27.45    7.52
   3  -7  -2   47.38   12.12
  -3  -7   1   52.45   10.14
   3  -7  -1   47.79   12.15
  -3  -7   0   27.90    8.03
   3  -7   0   25.93    8.84
  -3   7   0   21.99    5.91
  -3  -7  -1   78.34   12.48
   3  -7   1   53.00   11.42
  -3   7  -1   71.09    9.89
  -3  -7  -2    9.42    5.19
   3  -7   2    8.06    6.07
  -3   7  -2   15.69    5.48
  -3  -7  -3  138.85   15.86
   3  -7   3  134.45   17.63
  -3   7  -3  156.29   14.73
   3  -7   4   -3.28    3.98
  -3   7  -4    2.06    3.94
   3  -7   5   59.55   11.97
  -3   7  -5   43.67    7.81
  -3   7  -6   53.82    8.83
  -3   7  -7    5.87    3.59
  -3   7  -8   46.92    9.12
   4   0 -14   86.58   15.55
  -4   0  13    4.90    5.21
   4   0 -13   16.08    8.90
  -4   0  12   59.79   12.58
   4   0 -12   62.36   12.74
  -4   0  11   38.45   11.15
   4   0 -11   -1.59    4.14
  -4   0  10    7.91    5.53
   4   0 -10    5.08    5.01
  -4   0   9   -0.55    2.65
   4   0  -9    2.24    3.51
  -4   0   8   80.70   13.56
   4   0  -8   85.02   14.36
  -4   0   7    5.92    5.27
   4   0  -7    1.46    5.68
  -4   0   6  329.62   26.76
   4   0  -6  340.19   28.66
  -4   0   5    7.11    5.47
   4   0  -5    6.31    5.56
  -4   0   4   84.49   13.29
   4   0  -4   99.88   15.52
  -4   0   3    4.45    4.50
   4   0  -3    8.66    5.56
  -4   0   2   95.08   13.89
   4   0  -2   85.27   14.36
  -4   0   1   -0.47    3.52
   4   0  -1   16.44    7.27
  -4   0   0  309.17   24.21
  -4   0  -1   -1.61    2.40
  -4   0  -2   61.96   10.62
  -4   0  -3   -0.51    2.35
  -4   0  -4    5.86    3.00
  -4   0  -4    2.93    2.37
  -4   0  -5    0.86    1.74
  -4   0  -5    0.47    3.20
  -4   0  -6   73.87   11.46
  -4   0  -6   65.90    8.23
  -4   0  -7   -0.54    1.32
  -4   0  -8   33.83    6.10
  -4   0  -9    1.44    2.69
  -4   0 -10  114.55   11.19
  -4   0 -11    7.15    3.44
   4   1 -15  155.44   20.00
   4   1 -14    2.79    4.94
  -4   1  13   71.05   13.39
   4  -1 -13   87.09   16.35
   4   1 -13   90.88   15.51
  -4   1  12    4.16    4.47
  -4  -1  12    4.65    5.16
   4  -1 -12   -0.97    5.53
   4   1 -12   12.70    6.78
  -4   1  11   89.77   14.68
  -4  -1  11   56.43   12.14
   4  -1 -11   71.57   14.02
   4   1 -11   59.22   12.55
  -4   1  10   18.44    7.37
  -4  -1  10    9.58    5.95
   4  -1 -10   13.11    7.44
  -4   1   9   31.52    8.98
  -4  -1   9   34.39    8.85
   4  -1  -9   28.17    9.10
  -4   1   8    9.99    5.22
  -4  -1   8   13.64    6.14
   4  -1  -8    6.36    5.75
  -4   1   7   96.62   14.40
  -4  -1   7   74.90   13.09
   4  -1  -7   78.57   14.91
  -4   1   6    8.42    5.02
  -4  -1   6    1.02    3.66
   4  -1  -6   12.81    8.00
  -4   1   5  148.21   17.21
  -4  -1   5  134.06   17.42
   4  -1  -5  132.84   18.14
  -4   1   4    3.95    3.97
  -4  -1   4    2.63    3.44
   4  -1  -4   12.86    7.83
  -4   1   3   78.70   12.31
  -4  -1   3   67.82   12.30
   4  -1  -3   74.38   13.85
  -4   1   2    8.45    4.75
  -4  -1   2    2.16    2.73
   4  -1  -2   10.64    7.40
  -4   1   1   84.30   12.47
  -4  -1   1   85.88   13.28
   4  -1  -1   72.15   13.40
  -4   1   0   28.48    7.44
  -4  -1   0   20.29    6.71
   4  -1   0   31.50    9.28
  -4  -1  -1   87.21   12.98
  -4   1  -1   84.17   11.80
   4  -1   1   76.77   13.39
  -4   1  -1   77.60    8.76
  -4   1  -2   14.01    4.20
  -4  -1  -2    6.48    3.77
  -4   1  -2   10.56    4.32
   4  -1   2   17.12    6.74
  -4   1  -3   48.94    6.93
  -4  -1  -3   24.05    6.72
  -4   1  -3   48.77    8.75
   4  -1   3   47.39   11.10
  -4   1  -4   11.89    3.60
  -4  -1  -4   19.79    6.90
  -4   1  -4   23.59    6.14
  -4   1  -5   80.68   11.17
  -4  -1  -5   70.76   11.48
  -4   1  -5   75.44    8.62
  -4   1  -6    1.14    1.74
  -4  -1  -6   -0.57    2.58
  -4   1  -6    3.22    3.11
  -4  -1  -7   74.95   11.90
  -4  -1  -7   71.52    8.80
  -4   1  -7   78.85    8.93
  -4  -1  -8   13.64    4.31
  -4   1  -8    8.65    3.48
  -4  -1  -9  142.42   12.75
  -4   1  -9  173.35   13.55
  -4  -1 -10   69.02    8.89
  -4   1 -10   49.68    7.73
  -4   1 -11   78.72    9.30
  -4   2  14   67.11   13.49
  -4   2  13    2.74    4.08
  -4   2  12   34.21    9.04
  -4   2  11   14.95    6.92
  -4   2  10   89.59   14.25
  -4  -2  10   74.71   14.14
   4  -2 -10   88.88   15.92
  -4   2   9   14.99    5.63
  -4  -2   9    6.60    4.45
   4  -2  -9   12.22    6.03
  -4   2   8   10.55    5.75
  -4  -2   8    9.66    5.48
   4  -2  -8    4.15    4.99
  -4   2   7    9.38    4.74
  -4  -2   7   16.64    6.95
   4  -2  -7   21.37    8.78
  -4   2   6   85.35   13.10
  -4  -2   6   97.14   15.24
   4  -2  -6  119.23   17.42
  -4   2   5    7.33    3.85
  -4  -2   5    4.29    5.04
   4  -2  -5    8.75    6.43
  -4   2   4   81.93   12.21
  -4  -2   4   78.96   13.50
   4  -2  -4   89.69   15.33
  -4   2   4   68.87    7.83
  -4   2   3    5.30    2.38
  -4   2   3   16.39    6.11
  -4  -2   3   14.30    7.00
   4  -2  -3   19.37    8.52
  -4   2   2   44.57    6.22
  -4   2   2   47.25    9.01
  -4  -2   2   46.54   10.15
   4  -2  -2   48.99   11.93
  -4   2   1   -0.12    1.40
  -4   2   1    0.09    2.09
  -4  -2   1    2.66    4.03
  -4  -2   0  120.12   16.06
  -4   2   0  156.58   15.46
   4  -2   0  142.31   18.91
  -4   2   0  147.99   11.69
  -4   2  -1    1.52    2.49
  -4  -2  -1    2.24    3.73
  -4   2  -1    3.51    2.88
   4  -2   1    6.39    4.38
  -4   2  -1    7.06    3.39
  -4  -2  -2   58.62   11.13
  -4   2  -2   36.59    7.54
   4  -2   2   41.25   10.23
  -4   2  -2   59.85    7.45
  -4   2  -2   52.36    6.34
  -4   2  -3    5.18    3.18
  -4  -2  -3   -0.95    3.56
  -4   2  -3    2.68    2.62
   4  -2   3    9.68    6.22
  -4   2  -3    9.11    2.99
  -4  -2  -4  130.37   16.08
  -4   2  -4  105.57   12.17
   4  -2   4  121.43   16.39
  -4   2  -4  107.29    8.73
  -4   2  -4  115.79   10.61
  -4   2  -5    3.95    2.92
  -4  -2  -5    3.06    4.15
  -4   2  -5    2.07    2.61
  -4   2  -6   30.99    5.73
  -4  -2  -6   33.04    8.04
   4  -2   6   37.77    9.30
  -4   2  -7    9.02    3.39
  -4  -2  -7   14.04    6.15
  -4   2  -8  108.65   10.62
  -4  -2  -9    0.88    2.86
  -4   2  -9    5.00    3.02
  -4   2 -10  251.40   16.69
  -4   3  14   20.32    7.89
  -4   3  13    6.19    4.49
  -4   3  12    3.42    3.23
  -4   3  11   30.17    8.78
  -4   3  10   32.70    8.80
  -4   3   9   63.08   11.73
  -4   3   8    1.96    4.36
  -4  -3   8    1.25    3.35
  -4   3   7  158.41   17.67
  -4  -3   7  149.67   19.49
   4  -3  -7  148.68   21.01
  -4   3   6   33.13    7.88
  -4  -3   6   27.73    8.88
   4  -3  -6   38.33   11.64
  -4   3   5   61.73   10.98
  -4  -3   5   75.53   13.99
   4  -3  -5   49.62   12.24
  -4   3   5   72.66    9.04
  -4   3   4   -1.31    2.16
  -4  -3   4    8.73    5.22
   4  -3  -4    1.71    5.91
  -4   3   4    2.89    2.86
  -4   3   3   50.62    6.45
  -4   3   3   36.61    7.70
  -4  -3   3   32.22    8.54
   4  -3  -3   49.80   12.16
  -4   3   3   42.56    7.00
  -4   3   2    9.52    3.19
  -4   3   2    6.67    3.49
  -4  -3   2   10.83    4.83
  -4   3   2   18.69    4.54
  -4  -3   1  101.81   15.45
   4  -3  -1  114.44   17.66
  -4   3   1  110.95   10.26
  -4   3   1  118.16   10.12
  -4  -3   0   93.73   14.81
   4  -3   0  103.74   16.55
  -4   3   0  114.85   10.38
  -4   3   0  111.27    9.92
  -4  -3  -1  352.01   28.31
   4  -3   1  364.09   30.14
  -4   3  -1  356.95   18.31
  -4   3  -1  394.04   19.40
  -4  -3  -2  106.11   15.32
   4  -3   2  101.59   16.48
  -4   3  -2   89.00    8.67
  -4   3  -2  101.90    9.67
  -4  -3  -3  103.79   15.35
   4  -3   3  109.85   15.91
  -4   3  -3  105.28    9.22
  -4   3  -3  103.31    9.70
  -4   3  -4    6.91    3.16
  -4  -3  -4    5.47    4.45
   4  -3   4   16.57    7.83
  -4   3  -4   10.80    3.75
  -4  -3  -5   71.73   12.09
   4  -3   5   52.64   10.83
  -4   3  -5   68.02    8.04
  -4   3  -6    2.60    1.95
  -4  -3  -6    5.92    4.62
   4  -3   6    5.73    4.95
  -4   3  -7   19.84    4.66
  -4  -3  -7   42.01    9.39
   4  -3   7   29.56    8.43
  -4   3  -8    5.15    2.56
   4  -3   8   19.44    7.21
  -4   3  -9  111.26   10.90
  -4   3 -10   18.13    4.99
  -4   4   6   58.92    8.74
  -4   4   5   46.27    7.68
  -4   4   4    5.93    2.96
   4  -4  -3   19.46    7.89
  -4   4   3   26.14    5.46
   4  -4  -2    9.86    7.25
  -4   4   2   13.13    4.50
   4  -4  -1   11.03    7.38
  -4   4   1    7.49    3.63
   4  -4   0   75.16   14.17
  -4   4   0   84.26    9.19
   4  -4   1   37.86   10.11
  -4   4  -1   33.49    6.29
  -4   4  -2  267.81   15.79
   4  -4   2  276.54   26.20
  -4   4  -2  252.73   15.67
  -4   4  -3    4.54    2.86
  -4   4  -3   -0.65    2.29
  -4   4  -4   84.03    8.84
   4  -4   4   72.50   13.26
  -4   4  -5   17.59    4.35
   4  -4   5   18.38    7.73
  -4   4  -6   48.90    7.05
   4  -4   6   55.38   11.65
  -4   4  -7   43.54    6.78
  -4  -4  -7   36.28    6.94
   4  -4   7   33.98    9.30
  -4   4  -8   72.97    8.67
   4  -4   8   64.08   12.42
  -4   4  -9    5.57    3.07
   4  -4   9   12.38    6.94
  -4   5   2   52.42    8.22
  -4   5   1   44.53    7.45
  -4   5   0    6.20    3.72
  -4   5  -1   51.57    7.89
  -4   5  -2    9.28    3.79
  -4   5  -3   55.73    8.05
   4  -5   5   20.28    8.09
  -4  -5  -6   11.69    4.53
   4  -5   6   22.37    8.07
  -4   5  -7   49.49    7.29
  -4  -5  -7   50.23    9.01
   4  -5   7   39.01   10.27
  -4  -5  -8    2.71    3.26
   0   0   0    0.00    0.00


TITL 20195198 in P2(1)/c
REM P2(1)/c (#14 in standard setting)
CELL 0.71073   3.701457   7.392023  21.353503  90.0000  91.0598  90.0000
ZERR    3.00   0.000223   0.000396   0.001165   0.0000   0.0051   0.0000
LATT  1
SYMM -x, y+1/2,-z+1/2
SFAC C H N O
UNIT 33.00 30.00 3.00 3.00
TREF
HKLF 4
END
_computing_structure_solution     'SHELXT 2014/5 (Sheldrick, 2014)'
;
loop_
_space_group_symop_operation_xyz
'x, y, z'
'-x, y+1/2, -z+1/2'
'-x, -y, -z'
'x, -y-1/2, z-1/2'
loop_
_atom_site_label
_atom_site_type_symbol
_atom_site_fract_x
_atom_site_fract_y
_atom_site_fract_z
_atom_site_U_iso_or_equiv
_atom_site_adp_type
_atom_site_occupancy
_atom_site_site_symmetry_order
_atom_site_calc_flag
_atom_site_refinement_flags_posn
_atom_site_refinement_flags_adp
_atom_site_refinement_flags_occupancy
_atom_site_disorder_assembly
_atom_site_disorder_group
Cu1 Cu 0.5000 0.5000 0.5000 0.02190(18) Uani 1 2 d S T P . .
O1 O 0.8102(6) 0.6781(3) 0.53906(9) 0.0308(5) Uani 1 1 d . . . . .
O2 O 1.0079(6) 0.7760(3) 0.63203(9) 0.0312(5) Uani 1 1 d . . . . .
N1 N 0.5479(6) 0.3779(3) 0.58390(10) 0.0166(5) Uani 1 1 d . . . . .
N2 N 0.2922(7) 0.0955(3) 0.56337(11) 0.0273(6) Uani 1 1 d . . . . .
H2A H 0.2599 0.1255 0.5248 0.033 Uiso 1 1 calc R . . . .
H2B H 0.2266 -0.0097 0.5761 0.033 Uiso 1 1 calc R . . . .
C1 C 0.8531(7) 0.6635(3) 0.59926(12) 0.0201(6) Uani 1 1 d . . . . .
C2 C 0.7119(7) 0.4909(3) 0.62650(12) 0.0167(5) Uani 1 1 d . . . . .
C3 C 0.7606(7) 0.4500(4) 0.68811(12) 0.0200(6) Uani 1 1 d . . . . .
H3 H 0.8660 0.5328 0.7157 0.024 Uiso 1 1 calc R . . . .
C4 C 0.6477(7) 0.2795(4) 0.70897(12) 0.0214(6) Uani 1 1 d . . . . .
H4 H 0.6745 0.2479 0.7510 0.026 Uiso 1 1 calc R . . . .
C5 C 0.4991(7) 0.1610(4) 0.66742(12) 0.0216(6) Uani 1 1 d . . . . .
H5 H 0.4328 0.0460 0.6806 0.026 Uiso 1 1 calc R . . . .
C6 C 0.4444(7) 0.2123(3) 0.60363(12) 0.0173(5) Uani 1 1 d . . . . .
loop_
_atom_site_aniso_label
_atom_site_aniso_U_11
_atom_site_aniso_U_22
_atom_site_aniso_U_33
_atom_site_aniso_U_23
_atom_site_aniso_U_13
_atom_site_aniso_U_12
Cu1 0.0326(3) 0.0178(3) 0.0151(3) 0.00281(18) -0.0040(2) -0.0119(2)
O1 0.0488(13) 0.0248(11) 0.0185(10) 0.0060(8) -0.0076(9) -0.0206(9)
O2 0.0461(13) 0.0217(10) 0.0255(11) 0.0004(9) -0.0098(10) -0.0148(9)
N1 0.0201(11) 0.0125(11) 0.0170(11) 0.0004(9) -0.0014(9) -0.0039(8)
N2 0.0431(15) 0.0167(12) 0.0218(12) 0.0021(10) -0.0049(11) -0.0125(11)
C1 0.0232(14) 0.0153(13) 0.0216(14) 0.0005(11) -0.0019(11) -0.0024(11)
C2 0.0172(12) 0.0149(13) 0.0181(14) -0.0007(10) 0.0002(10) -0.0017(10)
C3 0.0218(14) 0.0201(13) 0.0179(14) -0.0018(11) -0.0030(11) -0.0018(11)
C4 0.0250(14) 0.0225(14) 0.0166(14) 0.0037(11) -0.0007(11) 0.0023(11)
C5 0.0268(15) 0.0153(13) 0.0229(14) 0.0061(11) 0.0033(11) 0.0006(11)
C6 0.0176(13) 0.0139(12) 0.0204(14) 0.0010(10) 0.0034(10) -0.0001(10)
loop_
_atom_type_symbol
_atom_type_description
_atom_type_scat_dispersion_real
_atom_type_scat_dispersion_imag
_atom_type_scat_source
C C 0.0033 0.0016 'International Tables Vol C Tables 4.2.6.8 and 6.1.1.4'
H H 0.0000 0.0000 'International Tables Vol C Tables 4.2.6.8 and 6.1.1.4'
Cu Cu 0.3201 1.2651 'International Tables Vol C Tables 4.2.6.8 and 6.1.1.4'
N N 0.0061 0.0033 'International Tables Vol C Tables 4.2.6.8 and 6.1.1.4'
O O 0.0106 0.0060 'International Tables Vol C Tables 4.2.6.8 and 6.1.1.4'
loop_
_geom_angle_atom_site_label_1
_geom_angle_atom_site_label_2
_geom_angle_atom_site_label_3
_geom_angle
_geom_angle_site_symmetry_1
_geom_angle_site_symmetry_3
O1 Cu1 O1 180.0 . 3_666
O1 Cu1 N1 96.94(8) 3_666 .
O1 Cu1 N1 83.06(8) . .
O1 Cu1 N1 83.06(8) 3_666 3_666
O1 Cu1 N1 96.94(8) . 3_666
N1 Cu1 N1 180.0 . 3_666
C1 O1 Cu1 115.68(17) . .
C2 N1 Cu1 110.42(16) . .
C6 N1 Cu1 131.54(18) . .
C6 N1 C2 118.0(2) . .
H2A N2 H2B 120.0 . .
C6 N2 H2A 120.0 . .
C6 N2 H2B 120.0 . .
O1 C1 C2 114.7(2) . .
O2 C1 O1 124.0(2) . .
O2 C1 C2 121.3(2) . .
N1 C2 C1 114.5(2) . .
C3 C2 N1 123.9(2) . .
C3 C2 C1 121.6(2) . .
C2 C3 H3 120.9 . .
C2 C3 C4 118.2(2) . .
C4 C3 H3 120.9 . .
C3 C4 H4 120.3 . .
C5 C4 C3 119.5(2) . .
C5 C4 H4 120.3 . .
C4 C5 H5 119.9 . .
C4 C5 C6 120.2(2) . .
C6 C5 H5 119.9 . .
N1 C6 C5 120.2(2) . .
N2 C6 N1 120.2(2) . .
N2 C6 C5 119.6(2) . .
loop_
_geom_bond_atom_site_label_1
_geom_bond_atom_site_label_2
_geom_bond_distance
_geom_bond_site_symmetry_2
Cu1 O1 1.9268(18) .
Cu1 O1 1.9268(18) 3_666
Cu1 N1 2.011(2) .
Cu1 N1 2.011(2) 3_666
O1 C1 1.297(3) .
O2 C1 1.222(3) .
N1 C2 1.369(3) .
N1 C6 1.352(3) .
N2 H2A 0.8600 .
N2 H2B 0.8600 .
N2 C6 1.336(3) .
C1 C2 1.501(4) .
C2 C3 1.359(4) .
C3 H3 0.9300 .
C3 C4 1.403(4) .
C4 H4 0.9300 .
C4 C5 1.356(4) .
C5 H5 0.9300 .
C5 C6 1.425(4) .
