#------------------------------------------------------------------------------
#$Date: 2022-05-11 12:21:15 +0300 (Wed, 11 May 2022) $
#$Revision: 275335 $
#$URL: file:///home/coder/svn-repositories/cod/cif/8/10/52/8105222.cif $
#------------------------------------------------------------------------------
#
# This file is available in the Crystallography Open Database (COD),
# http://www.crystallography.net/
#
# All data on this site have been placed in the public domain by the
# contributors.
#
data_8105222
loop_
_publ_author_name
'Zheng, Xinging'
'Li, Li'
'Ran, Jingwen'
_publ_section_title
;
 Crystal structure of catena-poly[diaqua-(\m2-oxalyl dihydrazide-\k4
 N,O:N&#x2032;,O&#x2032;)-bis(\m2-pyridine-2,3-dicarboxylato-\k3
 N,O,O&#x2032;)dicadmium(II)] hexahydrate, C16H28O18N6Cd2
;
_journal_issue                   3
_journal_name_full
'Zeitschrift f\"ur Kristallographie - New Crystal Structures'
_journal_page_first              573
_journal_page_last               574
_journal_paper_doi               10.1515/ncrs-2019-0823
_journal_volume                  235
_journal_year                    2020
_chemical_formula_moiety         'C8 H8 Cd N3 O6, 3(H2 O)'
_chemical_formula_sum            'C8 H14 Cd N3 O9'
_chemical_formula_weight         408.62
_space_group_crystal_system      triclinic
_space_group_IT_number           2
_space_group_name_Hall           '-P 1'
_space_group_name_H-M_alt        'P -1'
_atom_sites_solution_hydrogens   mixed
_atom_sites_solution_primary     dual
_atom_sites_solution_secondary   difmap
_cell_angle_alpha                85.956(2)
_cell_angle_beta                 89.833(2)
_cell_angle_gamma                68.2690(10)
_cell_formula_units_Z            2
_cell_length_a                   7.8375(3)
_cell_length_b                   7.8877(4)
_cell_length_c                   12.0841(6)
_cell_measurement_reflns_used    9840
_cell_measurement_temperature    293(2)
_cell_measurement_theta_max      27.50
_cell_measurement_theta_min      2.79
_cell_volume                     692.00(6)
_computing_cell_refinement       'Bruker SMART [1]'
_computing_data_collection       'Bruker SMART [1]'
_computing_data_reduction        'Bruker SAINT [1]'
_computing_molecular_graphics    'Diamond 4.0 [4]'
_computing_publication_material  'Bruker SHELXTL [3]'
_computing_structure_refinement  'SHELXL-2015/7 (Sheldrick, 2015) [3]'
_computing_structure_solution    'Bruker SHELXTL [2]'
_diffrn_ambient_temperature      293(2)
_diffrn_detector_area_resol_mean 16.2711
_diffrn_measured_fraction_theta_full 0.998
_diffrn_measured_fraction_theta_max 0.997
_diffrn_measurement_device_type  'four-circle diffractometer'
_diffrn_measurement_method       '\w scans'
_diffrn_radiation_type           MoK\a
_diffrn_radiation_wavelength     0.71073
_diffrn_reflns_av_R_equivalents  0.0187
_diffrn_reflns_av_unetI/netI     0.0154
_diffrn_reflns_Laue_measured_fraction_full 0.998
_diffrn_reflns_Laue_measured_fraction_max 0.997
_diffrn_reflns_limit_h_max       10
_diffrn_reflns_limit_h_min       -10
_diffrn_reflns_limit_k_max       10
_diffrn_reflns_limit_k_min       -10
_diffrn_reflns_limit_l_max       15
_diffrn_reflns_limit_l_min       -15
_diffrn_reflns_number            15249
_diffrn_reflns_point_group_measured_fraction_full 0.998
_diffrn_reflns_point_group_measured_fraction_max 0.997
_diffrn_reflns_theta_full        25.242
_diffrn_reflns_theta_max         27.502
_diffrn_reflns_theta_min         2.788
_diffrn_source                   'Mo X-ray Source'
_diffrn_standards_decay_%        0
_diffrn_standards_interval_count 150
_diffrn_standards_interval_time  10
_diffrn_standards_number         2
_exptl_absorpt_coefficient_mu    1.628
_exptl_absorpt_correction_T_max  0.735
_exptl_absorpt_correction_T_min  0.561
_exptl_absorpt_correction_type   analytical
_exptl_absorpt_process_details
;
CrysAlisPro, Agilent Technologies, Version 1.171.37.35.
Analytical numeric absorption correction using a multifaceted crystal
model based on expressions derived by R.C. Clark & J.S. Reid.
(Clark, R. C. & Reid, J. S. (1995). Acta Cryst. A51, 887-897)
;
_exptl_crystal_colour            colorless
_exptl_crystal_density_diffrn    1.961
_exptl_crystal_description       cubic
_exptl_crystal_F_000             406
_exptl_crystal_size_max          0.300
_exptl_crystal_size_mid          0.260
_exptl_crystal_size_min          0.200
_refine_diff_density_max         0.385
_refine_diff_density_min         -0.331
_refine_diff_density_rms         0.054
_refine_ls_extinction_coef       .
_refine_ls_extinction_method     none
_refine_ls_goodness_of_fit_ref   1.109
_refine_ls_hydrogen_treatment    mixed
_refine_ls_matrix_type           full
_refine_ls_number_parameters     211
_refine_ls_number_reflns         3170
_refine_ls_number_restraints     0
_refine_ls_restrained_S_all      1.109
_refine_ls_R_factor_all          0.0173
_refine_ls_R_factor_gt           0.0159
_refine_ls_shift/su_max          0.001
_refine_ls_shift/su_mean         0.000
_refine_ls_structure_factor_coef Fsqd
_refine_ls_weighting_details
'w=1/[\s^2^(Fo^2^)+(0.0149P)^2^+0.3440P] where P=(Fo^2^+2Fc^2^)/3'
_refine_ls_weighting_scheme      calc
_refine_ls_wR_factor_gt          0.0384
_refine_ls_wR_factor_ref         0.0395
_reflns_Friedel_coverage         0.000
_reflns_Friedel_fraction_full    .
_reflns_Friedel_fraction_max     .
_reflns_number_gt                3031
_reflns_number_total             3170
_reflns_threshold_expression     'I > 2\s(I)'
_cod_data_source_file            suppl_ncrs-2019-0823_suppl.cif
_cod_data_source_block           T
_cod_database_code               8105222
_shelx_space_group_comment
;
The symmetry employed for this shelxl refinement is uniquely defined
by the following loop, which should always be used as a source of
symmetry information in preference to the above space-group names.
They are only intended as comments.
;
_shelx_estimated_absorpt_t_min   0.641
_shelx_estimated_absorpt_t_max   0.737
_shelx_res_file
;

    T.res created by SHELXL-2014/7

TITL r in P1 New: P-1
CELL 0.71073 7.8375 7.8877 12.0841 85.956 89.833 68.269
ZERR 2 0.0003 0.0004 0.0006 0.002 0.002 0.001
LATT 1
SFAC C  H  Cd N  O
UNIT 16 28 2 6 18
L.S. 30
ACTA
BOND $H
FMAP 2
PLAN 20
HTAB O7 O1_$2
HTAB O7 O2_$7
HTAB O6 O7
HTAB O6 O8_$4
HTAB O8 O9
HTAB O8 O3_$6
HTAB O9 O7_$5
HTAB O9 O4_$4
HTAB N2 O9_$3
HTAB N3 O1_$2
HTAB N3 O2_$1
SIZE 0.30 0.26 0.20
HTAB O7 O1_$2
HTAB O7 O2_$7
HTAB O6 O7
HTAB O6 O8_$4
HTAB O8 O9
HTAB O8 O3_$6
HTAB O9 O7_$5
HTAB O9 O4_$4
HTAB N2 O9_$3
HTAB N3 O1_$2
HTAB N3 O2_$1
HTAB 2
CONF
EQIV $1 x-1, y, z
HTAB N3 O2_$1
EQIV $2 -x+1, -y+1, -z
HTAB N3 O1_$2
EQIV $3 x, y, z-1
HTAB N2 O9_$3
EQIV $4 -x+1, -y+1, -z+1
HTAB O9 O4_$4
EQIV $5 -x, -y+1, -z+1
HTAB O9 O7_$5
EQIV $6 -x+2, -y, -z+1
HTAB O8 O3_$6
HTAB O8 O9
HTAB O6 O8_$4
HTAB O6 O7
EQIV $7 x-1, y+1, z
HTAB O7 O2_$7
HTAB O7 O1_$2
HTAB N3 O2_$1
HTAB N3 O1_$2
HTAB N2 O9_$3
HTAB O9 O4_$4
HTAB O9 O7_$5
HTAB O8 O3_$6
HTAB O8 O9
HTAB O6 O8_$4
HTAB O6 O7
HTAB O7 O2_$7
HTAB O7 O1_$2
WGHT    0.014900    0.344000
FVAR       0.23876
CD1   3    0.477368    0.332229    0.220263    11.00000    0.01855    0.03516 =
         0.02558   -0.00465   -0.00001   -0.01256
O1    5    0.746845    0.304482    0.124395    11.00000    0.02744    0.06716 =
         0.02207   -0.00301    0.00055   -0.02255
O2    5    1.048042    0.219299    0.144351    11.00000    0.02781    0.05812 =
         0.03222   -0.01543    0.01218   -0.02244
O3    5    1.339673    0.136648    0.351424    11.00000    0.02195    0.05819 =
         0.06240   -0.00297    0.00155   -0.00372
O4    5    1.187335    0.421340    0.291846    11.00000    0.03167    0.04566 =
         0.04271   -0.00685    0.00875   -0.02277
O5    5    0.546448    0.058934    0.129964    11.00000    0.04166    0.03395 =
         0.02589   -0.00406   -0.00836   -0.00771
O6    5    0.435065    0.634932    0.222892    11.00000    0.05757    0.03804 =
         0.06986    0.00957   -0.02456   -0.02570
N1    4    0.713703    0.264272    0.347518    11.00000    0.02051    0.04036 =
         0.02382   -0.00263    0.00238   -0.01574
N3    4    0.294117    0.389845    0.050646    11.00000    0.02518    0.02872 =
         0.02934   -0.00376    0.00038   -0.00911
AFIX  23
H3A   2    0.176331    0.418924    0.066941    11.00000   -1.20000
H3B   2    0.304854    0.483600    0.009786    11.00000   -1.20000
AFIX   0
N2    4    0.353701    0.232670   -0.009887    11.00000    0.02650    0.03113 =
         0.02041   -0.00338   -0.00053   -0.01101
AFIX  43
H2    2    0.311646    0.236704   -0.076078    11.00000   -1.20000
AFIX   0
C1    1    0.874323    0.263966    0.307590    11.00000    0.01858    0.02719 =
         0.02255   -0.00335    0.00283   -0.00953
C2    1    1.017081    0.258848    0.377595    11.00000    0.01905    0.03137 =
         0.02623   -0.00254    0.00043   -0.01061
C3    1    0.990645    0.252501    0.491580    11.00000    0.03139    0.06541 =
         0.02506   -0.00308   -0.00444   -0.02358
AFIX  43
H3    2    1.083345    0.249465    0.540457    11.00000   -1.20000
AFIX   0
C4    1    0.826735    0.250745    0.531523    11.00000    0.04158    0.08290 =
         0.02131   -0.00380    0.00400   -0.03235
AFIX  43
H4    2    0.807758    0.245413    0.607486    11.00000   -1.20000
AFIX   0
C5    1    0.691009    0.257011    0.457199    11.00000    0.02940    0.06300 =
         0.02608   -0.00305    0.00697   -0.02419
AFIX  43
H5    2    0.580093    0.256158    0.484243    11.00000   -1.20000
AFIX   0
C6    1    0.891961    0.263625    0.182332    11.00000    0.02475    0.03182 =
         0.02353   -0.00641    0.00371   -0.01590
C7    1    1.194422    0.269396    0.336103    11.00000    0.01986    0.04482 =
         0.02688   -0.00954    0.00151   -0.01483
C8    1    0.474875    0.079529    0.036642    11.00000    0.02362    0.03026 =
         0.02251   -0.00200    0.00311   -0.01282
O7    5    0.164844    0.863977    0.082317    11.00000    0.05157    0.04254 =
         0.03664   -0.00601   -0.00374   -0.00961
O8    5    0.377554    0.210910    0.657266    11.00000    0.05112    0.04401 =
         0.04743   -0.00089   -0.00377   -0.01319
O9    5    0.087009    0.286960    0.811991    11.00000    0.03833    0.05745 =
         0.06872    0.00710   -0.01065   -0.01751
AFIX   3
H9A   2    0.014359    0.398590    0.805031    11.00000   -1.20000
AFIX   0
H9B   2    0.032173    0.233925    0.835485    11.00000   -1.20000
H8B   2    0.452785    0.108561    0.653353    11.00000   -1.20000
H8A   2    0.309733    0.202775    0.698206    11.00000   -1.20000
H6A   2    0.492032    0.677052    0.254344    11.00000   -1.20000
H6B   2    0.365176    0.708899    0.181766    11.00000   -1.20000
H7A   2    0.134036    0.971630    0.088729    11.00000   -1.20000
H7B   2    0.175928    0.841546    0.021084    11.00000   -1.20000
HKLF 4

REM  r in P1 New: P-1
REM R1 =  0.0159 for    3031 Fo > 4sig(Fo)  and  0.0173 for all    3170 data
REM    211 parameters refined using      0 restraints

END

WGHT      0.0149      0.3441

REM Instructions for potential hydrogen bonds
HTAB N3 O2_$1
HTAB N3 O1_$2
HTAB N2 O9_$3
HTAB O9 O4_$4
HTAB O9 O7_$5
HTAB O8 O3_$6
HTAB O8 O9
HTAB O6 O8_$4
HTAB O6 O7
HTAB O7 O2_$7
HTAB O7 O1_$2

REM Highest difference peak  0.385,  deepest hole -0.331,  1-sigma level  0.054
Q1    1   0.5000  0.0000  0.0000  10.50000  0.05    0.39
Q2    1   1.1026  0.2661  0.3606  11.00000  0.05    0.35
Q3    1   0.4502  0.4220  0.2559  11.00000  0.05    0.35
Q4    1   0.8856  0.2566  0.2484  11.00000  0.05    0.35
Q5    1   0.0080  0.3735  0.7626  11.00000  0.05    0.34
Q6    1   0.9433  0.2732  0.3368  11.00000  0.05    0.29
Q7    1   0.6979  0.3833  0.1581  11.00000  0.05    0.28
Q8    1   1.0009  0.2841  0.4309  11.00000  0.05    0.28
Q9    1   0.7957  0.2720  0.3292  11.00000  0.05    0.25
Q10   1   0.7827  0.2238  0.4873  11.00000  0.05    0.25
Q11   1   1.3012  0.0632  0.3544  11.00000  0.05    0.25
Q12   1   0.4282  0.4445  0.1805  11.00000  0.05    0.24
Q13   1   0.2536  0.4776 -0.0179  11.00000  0.05    0.24
Q14   1   0.4391  0.1590  0.0101  11.00000  0.05    0.23
Q15   1   0.9199  0.2239  0.5113  11.00000  0.05    0.22
Q16   1   0.3194  0.3112  0.0219  11.00000  0.05    0.22
Q17   1   0.6356  0.2559  0.3105  11.00000  0.05    0.21
Q18   1   0.5298  0.0931  0.0713  11.00000  0.05    0.21
Q19   1   0.2090  0.3650  0.0942  11.00000  0.05    0.21
Q20   1   0.7088  0.2654  0.3953  11.00000  0.05    0.18
;
_shelx_hkl_file
;
  -2   0   0  258.58    5.57
  -2   0   0  257.59    5.60
  -2   0   0  254.92    5.49
  -2   0   0  266.15    5.60
   2   0   0  259.68    5.60
   2   0   0  264.33    5.57
   2   0   0  257.97    5.49
  -3   0   0  186.81    4.19
  -3   0   0  188.33    4.03
  -3   0   0  184.02    4.13
  -3   0   0  193.72    4.17
  -3   0   0  185.60    4.04
   3   0   0  185.31    4.01
   3   0   0  191.30    4.19
   3   0   0  186.76    4.13
  -4   0   0  142.59    3.39
  -4   0   0  142.26    3.30
  -4   0   0  146.48    3.41
  -4   0   0  147.91    3.17
  -4   0   0  142.05    3.43
  -4   0   0  143.47    3.16
   4   0   0  142.63    3.13
   4   0   0  145.05    3.37
   4   0   0  147.68    3.31
  -5   0   0  101.72    2.30
  -5   0   0  101.50    2.50
  -5   0   0   97.66    2.29
  -5   0   0   98.23    2.46
  -5   0   0  104.12    2.60
  -5   0   0   98.07    2.54
   5   0   0  103.29    2.56
   5   0   0  103.79    2.61
   5   0   0  100.89    2.24
  -6   0   0   89.96    2.43
  -6   0   0   87.37    2.37
  -6   0   0   86.59    2.26
  -6   0   0   88.93    2.06
   6   0   0   89.37    2.38
   6   0   0   88.05    1.99
   6   0   0   87.53    2.12
  -7   0   0   14.09    0.50
  -7   0   0   15.26    0.83
  -7   0   0   14.70    0.52
  -7   0   0   13.66    0.70
   7   0   0   15.06    0.79
  -8   0   0    4.35    0.29
  -8   0   0    4.77    0.46
  -8   0   0    6.66    0.82
  -8   0   0    5.21    0.31
   8   0   0    5.76    0.53
  -9   0   0    1.14    0.34
   9   0   0    1.72    0.38
   9  -1   0   28.24    1.28
  -9   1   0   30.16    1.39
  -9   1   0   27.28    1.09
   8  -1   0   50.54    1.73
  -8   1   0   48.68    1.36
  -8   1   0   49.72    1.80
  -8   1   0   47.61    1.33
  -8   1   0   46.46    1.52
   7  -1   0   67.10    1.71
   7  -1   0   73.68    2.15
  -7   1   0   69.98    1.79
  -7   1   0   71.37    1.82
  -7   1   0   75.17    2.25
  -7   1   0   70.41    1.96
   6  -1   0    7.95    0.36
   6  -1   0    7.42    0.34
   6  -1   0    8.03    0.53
  -6   1   0    7.19    0.51
  -6   1   0    7.70    0.38
  -6   1   0    8.32    0.40
  -6   1   0    8.16    0.58
  -6   1   0    7.59    0.44
   5  -1   0   78.75    1.88
   5  -1   0   81.35    2.13
   5  -1   0   78.96    1.89
  -5   1   0   78.42    2.11
  -5   1   0   77.66    2.05
  -5   1   0   78.93    1.91
  -5   1   0   80.15    2.19
  -5   1   0   81.30    1.93
   4  -1   0   72.38    1.70
   4  -1   0   71.78    1.92
   4  -1   0   70.30    1.69
  -4   1   0   70.44    1.85
  -4   1   0   72.51    1.72
  -4   1   0   70.43    1.76
  -4   1   0   73.29    1.72
   3  -1   0  262.37    5.85
   3  -1   0  276.81    5.98
   3  -1   0  276.53    5.87
  -3   1   0  273.24    5.87
  -3   1   0  273.54    5.88
  -3   1   0  274.02    5.99
  -3   1   0  270.49    5.89
   2  -1   0  127.71    2.84
   2  -1   0  129.25    2.85
   2  -1   0  131.06    2.90
  -2   1   0  129.65    2.90
  -2   1   0  128.20    2.85
  -2   1   0  129.24    2.83
  -2   1   0  130.86    2.85
   1  -1   0   35.28    0.84
   1  -1   0   35.20    0.84
  -1   1   0   34.59    0.85
  -1   1   0   35.57    0.85
   0   1   0   96.16    2.16
  -1  -1   0   18.89    0.51
  -1  -1   0   20.56    0.51
   1   1   0   20.04    0.46
   1   1   0   20.49    0.46
   1   1   0   19.78    0.48
   1   1   0   18.58    0.51
   1   1   0   18.81    0.47
  -2  -1   0   39.01    0.98
  -2  -1   0   39.68    0.99
  -2  -1   0   39.64    0.98
  -2  -1   0   39.59    0.95
   2   1   0   39.79    0.98
   2   1   0   39.09    0.98
   2   1   0   39.27    0.99
  -3  -1   0   22.28    0.66
  -3  -1   0   22.11    0.68
  -3  -1   0   22.11    0.68
  -3  -1   0   21.94    0.67
   3   1   0   21.87    0.68
   3   1   0   22.50    0.69
   3   1   0   21.79    0.67
  -4  -1   0   35.88    1.11
  -4  -1   0   37.31    1.13
  -4  -1   0   37.82    1.07
  -4  -1   0   36.31    1.05
   4   1   0   37.07    1.06
   4   1   0   37.51    1.09
  -5  -1   0    4.71    0.35
  -5  -1   0    5.47    0.36
  -5  -1   0    5.34    0.56
  -5  -1   0    4.78    0.36
   5   1   0    4.91    0.36
   5   1   0    5.32    0.37
  -6  -1   0    0.77    0.18
  -6  -1   0    1.12    0.23
  -6  -1   0    1.36    0.25
  -6  -1   0    1.46    0.25
   6   1   0    1.76    0.26
   6   1   0    1.43    0.26
  -7  -1   0   56.80    1.72
  -7  -1   0   53.42    1.61
  -7  -1   0   45.53    1.61
   7   1   0   54.42    1.69
   7   1   0   54.43    1.61
  -8  -1   0   40.28    1.42
  -8  -1   0   44.10    1.54
   8   1   0   42.71    1.62
  -9  -1   0   15.24    0.90
   9   1   0   14.90    0.90
   8  -2   0    2.07    0.38
  -8   2   0    2.73    0.29
  -8   2   0    2.05    0.39
  -8   2   0    1.77    0.27
   7  -2   0   12.67    0.54
   7  -2   0   13.83    0.94
   7  -2   0   12.05    0.56
  -7   2   0   13.59    0.61
  -7   2   0   12.05    0.62
  -7   2   0   14.33    0.88
  -7   2   0   14.27    0.64
   6  -2   0    6.06    0.48
   6  -2   0    5.07    0.34
   6  -2   0    5.25    0.33
  -6   2   0    5.21    0.36
  -6   2   0    5.20    0.38
  -6   2   0    5.85    0.55
  -6   2   0    5.58    0.36
  -6   2   0    5.47    0.50
   5  -2   0    0.87    0.16
   5  -2   0    0.80    0.15
   5  -2   0    0.91    0.20
  -5   2   0    0.74    0.16
  -5   2   0    0.63    0.16
  -5   2   0    0.64    0.19
  -5   2   0    0.67    0.15
   4  -2   0   16.94    0.68
   4  -2   0   15.77    0.58
   4  -2   0   15.85    0.58
  -4   2   0   16.46    0.60
  -4   2   0   16.32    0.56
  -4   2   0   15.96    0.66
  -4   2   0   16.81    0.61
   3  -2   0    4.82    0.31
   3  -2   0    4.97    0.30
   3  -2   0    4.71    0.28
  -3   2   0    4.67    0.32
  -3   2   0    5.22    0.25
  -3   2   0    4.88    0.31
  -3   2   0    5.04    0.30
   2  -2   0   92.58    2.18
   2  -2   0   94.69    2.19
  -2   2   0   95.11    2.09
  -2   2   0   94.99    2.19
  -2   2   0   92.99    2.19
  -2   2   0   94.77    2.18
   1  -2   0   12.85    0.42
   1  -2   0   11.29    0.40
  -1   2   0   11.52    0.40
  -1   2   0   11.02    0.40
  -1  -2   0    1.68    0.14
  -1  -2   0    1.43    0.13
   1   2   0    2.10    0.15
   1   2   0    1.75    0.14
   1   2   0    1.85    0.09
   1   2   0    1.67    0.10
   1   2   0    1.75    0.13
  -2  -2   0    1.41    0.13
  -2  -2   0    1.42    0.11
  -2  -2   0    1.36    0.14
  -2  -2   0    1.43    0.10
  -2  -2   0    1.26    0.11
   2   2   0    1.42    0.11
   2   2   0    1.41    0.15
   2   2   0    1.40    0.10
   2   2   0    1.37    0.10
   2   2   0    1.31    0.13
  -3  -2   0    3.26    0.14
  -3  -2   0    3.26    0.22
  -3  -2   0    3.63    0.20
  -3  -2   0    3.48    0.14
  -3  -2   0    3.48    0.24
  -3  -2   0    3.31    0.24
   3   2   0    3.30    0.23
  -4  -2   0  215.78    4.74
  -4  -2   0  211.52    4.80
  -4  -2   0  214.22    4.89
  -4  -2   0  214.67    4.84
   4   2   0  214.98    4.83
   4   2   0  218.00    4.82
  -5  -2   0  132.74    3.19
  -5  -2   0  133.94    3.20
  -5  -2   0  134.47    3.14
  -5  -2   0  131.97    3.20
   5   2   0  134.19    3.20
  -6  -2   0  130.64    3.25
  -6  -2   0  134.60    3.22
  -6  -2   0  131.12    3.24
  -6  -2   0  130.35    3.26
   6   2   0  133.39    3.25
   6   2   0  133.31    3.28
  -7  -2   0  106.79    2.71
  -7  -2   0   95.77    2.93
  -7  -2   0  102.86    2.79
   7   2   0  105.60    2.71
   7   2   0  104.05    2.76
  -8  -2   0   62.62    1.93
  -8  -2   0   68.01    2.52
   8   2   0   62.56    1.91
   8   2   0   62.12    1.97
  -9  -2   0   20.41    1.01
 -10  -2   0   42.45    1.64
   7  -3   0    5.93    0.43
   7  -3   0    5.97    0.57
  -7   3   0    6.12    0.67
  -7   3   0    5.47    0.48
  -7   3   0    6.06    0.49
   6  -3   0    0.11    0.17
   6  -3   0    0.15    0.13
  -6   3   0    0.24    0.20
  -6   3   0   -0.03    0.16
  -6   3   0   -0.10    0.14
  -6   3   0   -0.07    0.16
  -6   3   0    0.09    0.12
   5  -3   0   65.37    1.74
   5  -3   0   66.00    1.88
   5  -3   0   62.21    2.08
  -5   3   0   64.48    1.84
  -5   3   0   63.56    1.75
  -5   3   0   63.00    1.62
  -5   3   0   66.42    1.79
   4  -3   0  123.60    2.99
   4  -3   0  130.31    3.02
   4  -3   0  131.28    3.10
  -4   3   0  122.62    2.85
  -4   3   0  124.01    3.02
  -4   3   0  124.97    3.05
  -4   3   0  123.56    3.00
   3  -3   0  286.09    6.20
   3  -3   0  270.08    6.17
  -3   3   0  284.86    6.22
  -3   3   0  276.88    6.01
  -3   3   0  278.88    6.20
  -3   3   0  282.60    6.18
   2  -3   0  214.37    4.71
   2  -3   0  206.40    4.69
  -2   3   0  211.94    4.50
  -2   3   0  208.88    4.70
  -2   3   0  210.81    4.64
   1  -3   0  120.49    2.78
  -1   3   0  121.84    2.78
  -1   3   0  118.64    2.78
   0  -3   0  323.94    6.97
   0   3   0  320.64    6.97
   0   3   0  322.10    6.96
  -1  -3   0  518.25   10.87
  -1  -3   0  509.15   10.86
   1   3   0  504.92   10.72
   1   3   0  507.03   10.86
   1   3   0  510.81   10.86
   1   3   0  513.49   10.81
  -2  -3   0  216.16    4.73
  -2  -3   0  222.38    4.68
  -2  -3   0  221.54    4.74
   2   3   0  213.03    4.73
   2   3   0  216.73    4.78
   2   3   0  215.05    4.69
   2   3   0  219.87    4.64
   2   3   0  222.16    4.73
  -3  -3   0   68.23    1.51
  -3  -3   0   67.04    1.54
  -3  -3   0   67.95    1.61
  -3  -3   0   66.81    1.54
  -3  -3   0   65.01    1.66
   3   3   0   68.38    1.53
   3   3   0   66.13    1.62
   3   3   0   65.59    1.67
   3   3   0   67.74    1.53
   3   3   0   67.20    1.54
  -4  -3   0  217.56    4.89
  -4  -3   0  219.90    5.07
  -4  -3   0  219.82    4.95
  -4  -3   0  221.84    4.71
  -4  -3   0  220.17    4.78
  -4  -3   0  221.41    4.71
   4   3   0  218.86    4.96
   4   3   0  219.41    4.91
  -5  -3   0   89.19    2.31
  -5  -3   0   90.85    2.28
  -5  -3   0   89.29    2.30
  -5  -3   0   92.69    2.18
   5   3   0   91.69    2.33
  -6  -3   0   77.24    1.96
  -6  -3   0   75.41    2.05
  -6  -3   0   75.12    2.07
   6   3   0   76.40    2.08
  -7  -3   0    9.49    0.62
  -7  -3   0    9.98    0.55
  -7  -3   0    9.41    0.64
   7   3   0    9.83    0.60
  -8  -3   0    7.84    0.55
   8   3   0    7.34    0.57
  -9  -3   0    0.45    0.23
   9   3   0    0.42    0.22
 -10  -3   0    2.98    0.44
   7  -4   0   20.70    1.05
   7  -4   0   19.79    0.86
  -7   4   0   22.05    1.21
  -7   4   0   21.26    0.88
  -7   4   0   21.90    0.96
   6  -4   0   28.28    1.25
   6  -4   0   27.85    1.10
  -6   4   0   28.87    1.07
  -6   4   0   29.65    1.35
  -6   4   0   29.02    1.11
   5  -4   0   35.03    1.25
   5  -4   0   32.03    1.27
  -5   4   0   34.67    1.17
  -5   4   0   34.24    1.16
  -5   4   0   32.73    0.93
  -5   4   0   34.35    1.19
   4  -4   0   46.45    1.43
   4  -4   0   50.52    1.51
   4  -4   0   50.47    1.51
  -4   4   0   48.35    1.43
  -4   4   0   49.53    1.47
  -4   4   0   48.21    1.21
  -4   4   0   50.96    1.50
   3  -4   0   82.07    2.09
   3  -4   0   77.79    2.06
  -3   4   0   81.89    2.11
  -3   4   0   78.13    2.25
  -3   4   0   77.47    2.06
   2  -4   0   16.17    0.65
   2  -4   0   14.81    0.62
  -2   4   0   15.90    0.55
  -2   4   0   14.93    0.65
  -2   4   0   16.23    0.65
   1  -4   0   51.53    1.39
  -1   4   0   49.60    1.21
  -1   4   0   49.94    1.39
  -1   4   0   49.45    1.40
   0  -4   0    0.07    0.11
   0  -4   0    0.04    0.08
   0   4   0    0.20    0.11
   0   4   0    0.11    0.12
  -1  -4   0  314.95    6.99
  -1  -4   0  319.77    6.99
   1   4   0  325.89    6.90
   1   4   0  318.28    6.99
   1   4   0  326.81    7.01
  -2  -4   0   27.49    0.82
  -2  -4   0   28.84    0.84
   2   4   0   27.55    0.71
   2   4   0   28.11    0.83
   2   4   0   30.04    0.71
   2   4   0   28.60    0.83
   2   4   0   28.38    0.82
  -3  -4   0   25.62    0.71
  -3  -4   0   25.63    0.62
  -3  -4   0   24.74    0.74
  -3  -4   0   26.16    0.75
   3   4   0   24.99    0.73
   3   4   0   25.57    0.73
   3   4   0   25.32    0.81
   3   4   0   25.90    0.64
   3   4   0   24.41    0.73
  -4  -4   0    0.39    0.10
  -4  -4   0    0.21    0.10
  -4  -4   0    0.30    0.10
  -4  -4   0    0.49    0.08
   4   4   0    0.38    0.09
   4   4   0    0.33    0.12
   4   4   0    0.38    0.15
   4   4   0    0.29    0.09
   4   4   0    0.29    0.08
  -5  -4   0    4.98    0.25
  -5  -4   0    5.80    0.39
  -5  -4   0    4.95    0.24
  -5  -4   0    5.34    0.28
  -5  -4   0    4.73    0.34
   5   4   0    4.96    0.21
   5   4   0    5.19    0.21
   5   4   0    5.02    0.40
  -6  -4   0   16.10    0.59
  -6  -4   0   15.72    0.69
  -6  -4   0   15.73    0.72
  -6  -4   0   15.88    0.73
   6   4   0   15.93    0.75
  -7  -4   0   16.20    1.01
  -7  -4   0   17.50    0.69
   7   4   0   17.61    0.83
  -8  -4   0   49.82    1.50
   8   4   0   50.50    1.68
  -9  -4   0   15.29    0.78
   9   4   0   16.02    0.88
 -10  -4   0   35.23    1.34
   6  -5   0    8.41    0.60
   6  -5   0    8.97    0.68
  -6   5   0    8.67    0.66
  -6   5   0    9.48    0.80
  -6   5   0    9.76    0.68
   5  -5   0   -0.12    0.15
   5  -5   0    0.04    0.18
  -5   5   0   -0.07    0.18
  -5   5   0   -0.14    0.18
  -5   5   0    0.00    0.20
  -5   5   0   -0.30    0.18
   4  -5   0    3.32    0.41
   4  -5   0    3.41    0.38
  -4   5   0    3.11    0.33
  -4   5   0    2.92    0.42
  -4   5   0    3.22    0.40
   3  -5   0    8.17    0.53
  -3   5   0    8.09    0.53
  -3   5   0    7.59    0.41
  -3   5   0    8.88    0.56
   2  -5   0    3.21    0.34
   2  -5   0    2.95    0.36
  -2   5   0    2.06    0.28
  -2   5   0    3.14    0.24
  -2   5   0    2.25    0.32
   1  -5   0    7.46    0.46
   1  -5   0    7.38    0.45
  -1   5   0    7.83    0.48
  -1   5   0    7.17    0.45
  -1   5   0    7.42    0.30
   0  -5   0   39.15    1.17
   0  -5   0   37.24    1.15
   0   5   0   37.41    1.15
   0   5   0   39.21    1.18
   0   5   0   38.01    0.95
  -1  -5   0   36.79    1.12
  -1  -5   0   37.55    1.12
   1   5   0   37.02    1.11
   1   5   0   37.17    0.99
   1   5   0   37.96    1.12
  -2  -5   0   93.39    2.32
  -2  -5   0   96.21    2.33
   2   5   0   95.36    2.31
   2   5   0   96.36    2.28
   2   5   0   92.44    2.31
   2   5   0   97.67    2.14
  -3  -5   0  116.58    2.78
  -3  -5   0  118.38    2.78
   3   5   0  121.89    2.61
   3   5   0  119.09    2.82
   3   5   0  116.49    2.76
   3   5   0  118.45    2.77
   3   5   0  117.58    2.67
  -4  -5   0   72.61    1.76
  -4  -5   0   70.29    1.76
  -4  -5   0   71.54    1.73
   4   5   0   70.23    1.77
   4   5   0   69.64    1.74
   4   5   0   71.50    1.74
   4   5   0   72.00    1.90
  -5  -5   0  134.53    3.11
  -5  -5   0  132.11    3.24
  -5  -5   0  134.61    3.02
  -5  -5   0  134.59    2.92
  -5  -5   0  130.35    3.01
   5   5   0  128.04    2.97
   5   5   0  134.80    3.28
   5   5   0  132.01    2.98
  -6  -5   0  154.84    3.84
  -6  -5   0  161.77    3.52
  -6  -5   0  153.66    3.50
  -6  -5   0  159.67    3.50
  -6  -5   0  154.79    3.72
   6   5   0  160.23    3.88
  -7  -5   0   47.48    1.60
  -7  -5   0   51.00    1.61
  -7  -5   0   52.39    1.36
   7   5   0   51.04    1.65
  -8  -5   0   75.46    1.95
   8   5   0   72.90    2.56
  -9  -5   0   25.18    0.96
   9   5   0   26.21    1.18
 -10  -5   0   21.72    0.94
  10   5   0   23.38    1.14
   5  -6   0   11.05    0.71
   5  -6   0    9.96    0.70
  -5   6   0    8.97    0.80
  -5   6   0    9.73    0.81
  -5   6   0   11.42    0.73
  -5   6   0    9.21    0.57
   4  -6   0   22.57    0.98
   4  -6   0   22.13    0.98
  -4   6   0   21.21    0.81
  -4   6   0   22.65    1.02
  -4   6   0   21.29    0.98
   3  -6   0   34.18    1.24
  -3   6   0   32.14    1.00
  -3   6   0   33.66    1.28
  -3   6   0   34.17    1.42
   2  -6   0   37.79    1.29
  -2   6   0   36.57    1.01
  -2   6   0   37.31    1.31
  -2   6   0   37.57    1.28
   1  -6   0   43.02    1.35
   1  -6   0   35.95    1.48
  -1   6   0   41.54    1.33
  -1   6   0   42.16    1.36
   0  -6   0    4.79    0.42
   0  -6   0    5.08    0.42
   0   6   0    5.07    0.25
   0   6   0    5.47    0.42
   0   6   0    5.08    0.44
  -1  -6   0  140.55    3.46
  -1  -6   0  145.52    3.48
   1   6   0  146.43    3.49
   1   6   0  146.16    3.27
   1   6   0  143.13    3.46
  -2  -6   0   65.92    1.77
  -2  -6   0   63.19    1.75
   2   6   0   65.27    1.76
   2   6   0   66.31    1.67
   2   6   0   65.38    1.56
   2   6   0   64.89    1.93
  -3  -6   0   44.60    1.30
  -3  -6   0   46.11    1.31
   3   6   0   45.21    1.10
   3   6   0   45.16    1.30
   3   6   0   44.01    1.31
   3   6   0   44.09    1.28
  -4  -6   0   19.42    0.71
  -4  -6   0   18.19    0.69
   4   6   0   19.62    0.71
   4   6   0   18.78    0.68
   4   6   0   19.40    0.78
  -5  -6   0   26.15    0.84
  -5  -6   0   24.31    0.81
   5   6   0   25.10    0.79
   5   6   0   24.33    0.79
   5   6   0   26.25    0.98
  -6  -6   0    6.82    0.43
  -6  -6   0    6.68    0.37
  -6  -6   0    7.64    0.29
  -6  -6   0    7.76    0.54
  -6  -6   0    7.78    0.40
   6   6   0    7.36    0.54
   6   6   0    7.25    0.34
  -7  -6   0   14.01    0.66
  -7  -6   0   13.41    0.49
  -7  -6   0   13.94    0.50
  -7  -6   0   13.56    0.48
   7   6   0   14.58    0.78
  -8  -6   0    2.21    0.26
   8   6   0    2.33    0.37
  -9  -6   0    7.33    0.45
   9   6   0    8.35    0.68
   4  -7   0   11.57    0.73
   4  -7   0   11.96    0.79
  -4   7   0   10.68    0.57
  -4   7   0   14.17    0.94
  -4   7   0   12.93    0.83
   3  -7   0   11.01    0.73
  -3   7   0   11.49    0.77
  -3   7   0   10.23    0.50
   2  -7   0   18.97    0.93
  -2   7   0   16.99    0.56
  -2   7   0   18.00    0.92
   1  -7   0   30.92    1.18
  -1   7   0   30.17    1.20
  -1   7   0   29.20    1.16
   0  -7   0    5.23    0.48
   0  -7   0    5.46    0.51
   0   7   0    5.13    0.51
   0   7   0    4.87    0.48
  -1  -7   0   32.23    1.16
  -1  -7   0   30.01    1.12
   1   7   0   30.92    0.94
   1   7   0   31.32    0.91
   1   7   0   31.01    1.12
   1   7   0   31.55    1.15
  -2  -7   0   31.09    1.11
  -2  -7   0   29.66    1.09
   2   7   0   31.20    0.97
   2   7   0   30.94    0.88
   2   7   0   32.31    1.13
  -3  -7   0    2.86    0.35
  -3  -7   0    2.04    0.31
   3   7   0    1.88    0.26
   3   7   0    1.60    0.27
   3   7   0    2.25    0.20
   3   7   0    2.41    0.31
  -4  -7   0   -0.20    0.15
  -4  -7   0   -0.31    0.13
   4   7   0    0.03    0.13
   4   7   0   -0.23    0.11
   4   7   0   -0.17    0.12
  -5  -7   0    0.75    0.19
  -5  -7   0    0.90    0.20
   5   7   0    0.78    0.22
   5   7   0    1.00    0.20
  -6  -7   0   21.53    0.78
  -6  -7   0   21.96    0.96
  -6  -7   0   24.04    0.82
   6   7   0   21.52    0.75
   6   7   0   22.43    0.99
   6   7   0   22.81    0.77
  -7  -7   0    3.68    0.30
  -7  -7   0    3.94    0.33
   7   7   0    4.38    0.51
   7   7   0    3.75    0.26
   7   7   0    3.71    0.25
  -8  -7   0   10.41    0.44
  -8  -7   0   10.62    0.46
   8   7   0   12.02    0.78
   9   7   0    8.90    0.72
   2  -8   0    2.06    0.36
  -2   8   0    1.62    0.35
   1  -8   0    5.59    0.59
  -1   8   0    5.16    0.57
   0  -8   0    0.54    0.26
   0   8   0    0.52    0.25
  -1  -8   0   23.73    1.04
  -1  -8   0   25.33    1.06
   1   8   0   24.18    0.75
   1   8   0   25.50    1.08
   1   8   0   23.96    0.82
  -2  -8   0   29.64    1.44
  -2  -8   0   28.63    1.11
   2   8   0   26.81    1.08
   2   8   0   27.24    1.10
   2   8   0   24.74    0.81
  -3  -8   0   49.29    1.58
  -3  -8   0   48.67    1.58
   3   8   0   50.53    1.47
   3   8   0   52.87    1.61
  -4  -8   0   29.66    1.10
  -4  -8   0   29.46    1.09
   4   8   0   29.68    1.08
   4   8   0   31.78    1.12
  -5  -8   0   24.77    0.95
  -5  -8   0   26.69    1.00
   5   8   0   26.33    1.05
   5   8   0   27.22    0.98
  -6  -8   0   27.27    0.99
  -6  -8   0   26.99    0.96
   6   8   0   26.30    0.92
   6   8   0   26.49    1.11
  -7  -8   0   43.37    1.29
  -7  -8   0   40.39    1.24
   7   8   0   42.63    1.54
   7   8   0   39.16    1.17
  -8  -8   0   25.91    0.87
  -8  -8   0   24.25    0.83
   8   8   0   26.17    1.20
   1  -9   0   15.83    0.95
  -1   9   0   17.62    1.00
   0  -9   0    5.12    0.60
   0   9   0    6.77    0.67
   0   9   0    5.16    0.52
  -1  -9   0   10.03    0.72
   1   9   0    7.72    0.48
   1   9   0   10.01    0.78
  -2  -9   0   22.67    1.04
   2   9   0   21.83    1.02
   2   9   0   19.71    0.74
   2   9   0   22.38    0.78
  -3  -9   0    5.27    0.54
  -3  -9   0    5.98    0.56
   3   9   0    5.75    0.55
   3   9   0    4.10    0.31
   3   9   0    5.78    0.44
  -4  -9   0    4.66    0.51
  -4  -9   0    5.13    0.53
   4   9   0    4.95    0.52
   4   9   0    4.94    0.45
  -5  -9   0    4.79    0.49
  -5  -9   0    5.06    0.50
   5   9   0    5.08    0.50
   5   9   0    4.47    0.46
  -6  -9   0    3.52    0.44
  -6  -9   0    3.46    0.40
   6   9   0    3.00    0.56
   6   9   0    3.25    0.42
  -7  -9   0    9.02    0.59
  -7  -9   0   10.03    0.56
   7   9   0    9.77    0.73
   7   9   0    9.31    0.53
  -2 -10   0   -0.15    0.23
   2  10   0    0.45    0.30
   2  10   0    0.21    0.22
   2  10   0   -0.16    0.17
  -3 -10   0    0.04    0.22
   3  10   0    0.22    0.17
   3  10   0   -0.21    0.23
   3  10   0    0.13    0.27
  -4 -10   0    0.12    0.21
   4  10   0    0.10    0.26
  -5 -10   0    0.54    0.24
  -5 -10   0    0.73    0.26
   5  10   0    0.21    0.21
   5  10   0    0.40    0.25
   5  10  -1   11.91    0.67
   5  10  -1   11.32    0.73
  -5 -10   1   11.30    0.74
  -5 -10   1   12.62    0.76
   4  10  -1   20.60    0.85
   4  10  -1   19.99    1.01
  -4 -10   1   21.01    1.01
   3  10  -1   11.18    0.80
  -3 -10   1    9.62    0.73
   7   9  -1   10.36    0.55
   7   9  -1    9.46    0.72
  -7  -9   1   10.61    0.57
  -7  -9   1   10.79    0.62
   6   9  -1   11.44    0.62
   6   9  -1   10.49    0.90
  -6  -9   1   11.12    0.63
  -6  -9   1   11.75    0.68
   5   9  -1    7.79    0.56
   5   9  -1    7.15    0.55
  -5  -9   1    9.06    0.60
  -5  -9   1    7.72    0.57
   4   9  -1    6.13    0.56
   4   9  -1    7.52    0.51
  -4  -9   1    7.52    0.60
  -4  -9   1    6.72    0.58
   3   9  -1   13.29    0.60
   3   9  -1   13.05    0.78
  -3  -9   1   13.43    0.77
  -3  -9   1   11.85    0.73
   2   9  -1    0.26    0.23
   2   9  -1   -0.13    0.11
   2   9  -1   -0.05    0.11
   2   9  -1   -0.14    0.13
  -2  -9   1   -0.11    0.18
   1   9  -1    1.70    0.36
   1   9  -1    1.18    0.25
   1   9  -1    0.99    0.18
  -1  -9   1    1.23    0.33
   0   9  -1    0.29    0.27
   0   9  -1   -0.22    0.20
   0  -9   1    0.49    0.30
  -1   9  -1   -0.49    0.21
  -1   9  -1   -0.22    0.34
   1  -9   1   -0.12    0.24
   8   8  -1    0.48    0.25
  -8  -8   1    0.71    0.15
  -8  -8   1    0.64    0.18
   7   8  -1    4.87    0.35
   7   8  -1    5.53    0.55
  -7  -8   1    5.35    0.38
  -7  -8   1    5.16    0.42
   6   8  -1    0.64    0.18
   6   8  -1    0.24    0.19
  -6  -8   1    0.01    0.16
  -6  -8   1    0.16    0.16
   5   8  -1   16.07    0.72
   5   8  -1   15.22    0.77
  -5  -8   1   15.51    0.70
  -5  -8   1   14.81    0.73
   4   8  -1   39.27    1.28
   4   8  -1   39.90    1.31
  -4  -8   1   40.89    1.34
  -4  -8   1   37.82    1.30
   3   8  -1   21.24    0.80
   3   8  -1   22.44    0.93
  -3  -8   1   19.89    0.90
  -3  -8   1   21.26    0.92
   2   8  -1   40.18    1.15
   2   8  -1   43.50    1.21
   2   8  -1   44.89    1.48
  -2  -8   1   44.64    1.48
  -2  -8   1   44.76    1.69
   1   8  -1   18.14    0.67
   1   8  -1   19.79    0.94
  -1  -8   1   19.52    0.94
  -1  -8   1   19.05    0.94
   0   8  -1   11.20    0.74
   0  -8   1   11.17    0.99
  -1   8  -1   13.19    0.83
  -1   8  -1   12.24    0.73
   1  -8   1   12.22    0.79
  -2   8  -1   16.34    1.02
  -2   8  -1   17.91    0.98
   2  -8   1   16.77    0.94
   9   7  -1   23.87    1.14
   8   7  -1   34.41    1.36
  -8  -7   1   31.92    0.91
  -8  -7   1   33.62    0.94
   7   7  -1   17.45    0.57
   7   7  -1   20.40    0.97
   7   7  -1   17.62    0.57
  -7  -7   1   17.25    0.65
  -7  -7   1   18.77    0.68
   6   7  -1   34.09    1.24
   6   7  -1   32.13    0.96
   6   7  -1   31.14    0.95
  -6  -7   1   33.45    1.03
  -6  -7   1   30.81    1.17
  -6  -7   1   31.10    1.00
   5   7  -1   57.74    1.98
   5   7  -1   61.29    1.66
   5   7  -1   64.13    1.83
  -5  -7   1   64.43    1.71
  -5  -7   1   60.68    1.68
   4   7  -1   36.48    1.04
   4   7  -1   38.35    1.20
   4   7  -1   37.86    1.19
   4   7  -1   38.40    1.22
  -4  -7   1   38.81    1.22
  -4  -7   1   38.01    1.36
   3   7  -1   90.33    2.36
   3   7  -1   89.84    2.08
   3   7  -1   89.72    2.37
   3   7  -1   90.70    2.29
  -3  -7   1   94.22    2.40
  -3  -7   1   91.57    2.38
   2   7  -1   17.08    0.77
   2   7  -1   17.35    0.55
   2   7  -1   16.45    0.63
  -2  -7   1   16.99    0.78
  -2  -7   1   17.53    0.77
   1   7  -1   15.24    0.76
   1   7  -1   16.46    0.53
   1   7  -1   15.19    0.74
  -1  -7   1   16.67    0.79
  -1  -7   1   15.13    0.75
   0   7  -1    3.43    0.42
   0   7  -1    4.00    0.47
   0  -7   1    4.77    0.45
   0  -7   1    3.86    0.46
  -1   7  -1   28.47    1.32
  -1   7  -1   28.26    1.15
   1  -7   1   29.38    1.14
  -2   7  -1   16.70    0.88
  -2   7  -1   15.71    0.57
  -2   7  -1   16.43    0.86
   2  -7   1   15.99    0.87
  -3   7  -1    3.13    0.32
  -3   7  -1    3.47    0.53
  -3   7  -1    2.28    0.40
   3  -7   1    2.30    0.37
  -4   7  -1    1.82    0.38
  -4   7  -1    1.13    0.25
  -4   7  -1    1.29    0.32
   4  -7   1    1.94    0.35
   4  -7   1    1.40    0.30
   9   6  -1   19.24    1.01
  -9  -6   1   18.40    0.68
   8   6  -1   53.92    1.79
  -8  -6   1   51.60    1.33
   7   6  -1   18.90    0.90
  -7  -6   1   19.02    1.22
  -7  -6   1   18.23    0.59
  -7  -6   1   18.02    0.59
  -7  -6   1   18.26    1.01
   6   6  -1   62.02    1.53
   6   6  -1   65.98    1.91
  -6  -6   1   62.65    1.59
  -6  -6   1   58.56    2.21
  -6  -6   1   65.36    1.61
   5   6  -1   29.57    0.89
   5   6  -1   28.37    0.88
   5   6  -1   29.96    0.99
   5   6  -1   29.86    1.07
  -5  -6   1   30.32    1.06
  -5  -6   1   29.12    0.92
  -5  -6   1   31.23    0.94
   4   6  -1    2.91    0.31
   4   6  -1    3.34    0.27
   4   6  -1    3.33    0.34
   4   6  -1    3.04    0.30
  -4  -6   1    2.83    0.30
  -4  -6   1    3.25    0.32
   3   6  -1   24.44    0.72
   3   6  -1   25.38    1.04
   3   6  -1   24.54    0.84
   3   6  -1   23.74    0.85
  -3  -6   1   25.54    0.87
  -3  -6   1   24.26    0.85
   2   6  -1    6.74    0.52
   2   6  -1    6.36    0.27
   2   6  -1    6.34    0.36
   2   6  -1    6.94    0.42
  -2  -6   1    6.08    0.43
  -2  -6   1    6.10    0.41
   1   6  -1    5.62    0.42
   1   6  -1    5.86    0.45
   1   6  -1    5.73    0.30
  -1  -6   1    7.76    0.56
  -1  -6   1    5.73    0.44
   0   6  -1   -0.08    0.13
   0   6  -1   -0.02    0.13
   0  -6   1   -0.20    0.11
   0  -6   1   -0.08    0.13
  -1   6  -1    3.24    0.23
  -1   6  -1    3.18    0.42
  -1   6  -1    2.56    0.34
   1  -6   1    2.75    0.38
   1  -6   1    3.20    0.55
  -2   6  -1   11.03    0.69
  -2   6  -1   10.59    0.79
  -2   6  -1   11.59    0.49
   2  -6   1   10.96    0.66
  -3   6  -1   22.28    0.98
  -3   6  -1   22.92    1.22
  -3   6  -1   22.82    0.82
  -3   6  -1   24.27    1.08
   3  -6   1   23.56    0.99
  -4   6  -1   13.91    0.89
  -4   6  -1   14.69    0.83
  -4   6  -1   13.76    0.65
  -4   6  -1   14.08    0.79
   4  -6   1   13.80    0.79
   4  -6   1   13.95    0.74
  -5   6  -1    6.56    0.58
  -5   6  -1    5.67    0.52
  -5   6  -1    6.48    0.71
   5  -6   1    6.52    0.57
   5  -6   1    5.87    0.56
 -10  -5   1    6.66    0.53
   9   5  -1    0.27    0.22
  -9  -5   1    0.75    0.20
  -8  -5   1    4.44    0.36
   7   5  -1    6.74    0.53
  -7  -5   1    6.99    0.36
  -7  -5   1    5.87    0.49
   6   5  -1   10.08    0.56
   6   5  -1    9.53    0.60
  -6  -5   1    9.16    0.56
  -6  -5   1   10.07    0.37
  -6  -5   1    9.89    0.37
  -6  -5   1    9.46    0.51
  -6  -5   1    9.93    0.38
  -6  -5   1    9.52    0.58
   5   5  -1   64.12    1.73
   5   5  -1   77.37    2.04
   5   5  -1   75.78    1.95
   5   5  -1   75.26    1.75
  -5  -5   1   77.64    1.80
  -5  -5   1   73.53    1.79
  -5  -5   1   76.05    2.01
  -5  -5   1   72.41    2.00
  -5  -5   1   77.73    1.89
   4   5  -1   38.88    1.05
   4   5  -1   37.50    1.06
   4   5  -1   41.06    1.12
   4   5  -1   40.24    1.20
  -4  -5   1   38.64    1.07
  -4  -5   1   38.66    1.08
   3   5  -1   69.61    1.75
   3   5  -1   69.47    1.77
   3   5  -1   71.33    1.70
   3   5  -1   72.03    1.82
  -3  -5   1   69.23    1.77
  -3  -5   1   72.17    1.79
   2   5  -1   27.07    0.72
   2   5  -1   27.80    0.69
   2   5  -1   27.00    0.87
   2   5  -1   27.00    0.86
   2   5  -1   26.52    0.81
  -2  -5   1   27.14    0.87
  -2  -5   1   27.21    0.87
   1   5  -1  101.65    2.35
   1   5  -1  106.26    2.55
   1   5  -1  102.34    2.52
  -1  -5   1  101.67    2.53
  -1  -5   1  105.44    2.54
   0   5  -1   19.48    0.75
   0   5  -1   18.70    0.73
   0  -5   1   19.58    0.74
   0  -5   1   19.35    0.75
  -1   5  -1  121.25    2.96
  -1   5  -1  120.96    2.95
   1  -5   1  115.02    2.92
   1  -5   1  121.12    2.95
  -2   5  -1   93.86    2.45
  -2   5  -1   94.48    2.27
  -2   5  -1   93.76    2.47
   2  -5   1   97.67    2.47
   2  -5   1   92.84    2.43
  -3   5  -1   41.91    1.24
  -3   5  -1   43.12    1.39
  -3   5  -1   41.40    1.35
   3  -5   1   43.92    1.38
  -4   5  -1   26.07    0.97
  -4   5  -1   27.63    1.09
  -4   5  -1   28.13    1.20
  -4   5  -1   26.25    1.04
   4  -5   1   27.17    1.03
   4  -5   1   28.43    1.05
  -5   5  -1    9.48    0.61
  -5   5  -1    7.73    0.57
  -5   5  -1    7.87    0.61
  -5   5  -1    9.58    0.74
   5  -5   1    8.05    0.59
   5  -5   1    8.22    0.57
  -6   5  -1    8.02    0.76
  -6   5  -1    8.72    0.65
   6  -5   1    7.83    0.63
   6  -5   1    7.24    0.56
 -10  -4   1    7.38    0.59
   9   4  -1   15.07    0.85
  -9  -4   1   14.92    0.74
   8   4  -1  111.40    2.99
  -8  -4   1  108.30    2.76
   7   4  -1   98.07    2.60
  -7  -4   1   90.65    2.71
  -7  -4   1   97.91    2.53
  -7  -4   1   90.99    2.54
   6   4  -1  125.89    3.16
   6   4  -1  128.21    3.14
  -6  -4   1  126.15    2.90
  -6  -4   1  125.41    3.14
  -6  -4   1  124.55    3.07
  -6  -4   1  123.39    3.15
   5   4  -1   95.97    2.44
   5   4  -1   95.82    2.39
  -5  -4   1   94.11    2.33
  -5  -4   1   96.60    2.14
  -5  -4   1   94.88    2.16
  -5  -4   1   94.88    2.43
  -5  -4   1   93.86    2.14
  -5  -4   1   94.15    2.41
   4   4  -1  123.65    2.88
   4   4  -1  119.01    2.96
   4   4  -1  122.68    2.73
   4   4  -1  120.97    2.73
  -4  -4   1  122.30    2.75
  -4  -4   1  122.92    2.75
  -4  -4   1  123.58    2.93
  -4  -4   1  125.59    2.84
  -4  -4   1  123.18    2.95
   3   4  -1  210.53    4.61
   3   4  -1  214.44    4.73
   3   4  -1  206.11    4.62
   3   4  -1  211.24    4.64
  -3  -4   1  208.76    4.71
  -3  -4   1  209.73    4.63
  -3  -4   1  215.28    4.64
   2   4  -1  205.14    4.54
   2   4  -1  207.23    4.56
   2   4  -1  203.82    4.45
   2   4  -1  208.11    4.55
  -2  -4   1  206.97    4.56
  -2  -4   1  202.40    4.55
   1   4  -1  437.96   10.32
   1   4  -1  464.97    9.91
   1   4  -1  480.45   10.05
  -1  -4   1  468.77   10.04
  -1  -4   1  480.87   10.05
   0   4  -1   40.34    1.18
   0   4  -1   40.30    0.94
   0   4  -1   40.63    1.16
   0  -4   1   40.09    1.15
   0  -4   1   41.64    1.16
  -1   4  -1   52.18    1.44
  -1   4  -1   51.07    1.41
   1  -4   1   50.55    1.41
   1  -4   1   52.28    1.43
  -2   4  -1   33.23    1.05
  -2   4  -1   33.09    1.06
   2  -4   1   34.50    1.10
   2  -4   1   31.70    1.03
  -3   4  -1    2.73    0.29
  -3   4  -1    2.38    0.32
  -3   4  -1    2.18    0.32
   3  -4   1    2.52    0.30
   3  -4   1    2.76    0.28
  -4   4  -1    1.56    0.26
  -4   4  -1    2.24    0.31
  -4   4  -1    1.44    0.29
  -4   4  -1    1.43    0.22
   4  -4   1    1.64    0.24
   4  -4   1    2.22    0.33
  -5   4  -1    8.52    0.69
  -5   4  -1    8.33    0.54
  -5   4  -1    9.17    0.58
  -5   4  -1    8.91    0.55
   5  -4   1    8.55    0.53
   5  -4   1    9.27    0.58
  -6   4  -1    5.52    0.66
  -6   4  -1    4.62    0.48
  -6   4  -1    5.01    0.45
   6  -4   1    5.76    0.76
   6  -4   1    3.95    0.42
  -7   4  -1    1.05    0.28
  -7   4  -1    1.36    0.37
  -7   4  -1    1.42    0.29
   7  -4   1    0.97    0.33
 -10  -3   1   34.12    1.36
  -9  -3   1   27.92    1.13
   8   3  -1   42.65    1.47
  -8  -3   1   42.55    1.39
   7   3  -1   44.08    1.44
  -7  -3   1   44.66    1.35
  -7  -3   1   43.63    1.45
  -7  -3   1   42.82    1.44
   6   3  -1   39.94    1.30
   6   3  -1   40.97    1.31
  -6  -3   1   39.31    1.29
  -6  -3   1   40.05    1.26
  -6  -3   1   41.87    1.19
  -6  -3   1   40.34    1.29
   5   3  -1   18.19    0.73
   5   3  -1   18.66    0.73
  -5  -3   1   18.74    0.70
  -5  -3   1   18.43    0.72
  -5  -3   1   18.18    0.73
  -5  -3   1   18.55    0.61
   4   3  -1   88.43    2.23
   4   3  -1   90.71    2.19
  -4  -3   1   88.49    1.97
  -4  -3   1   90.30    1.97
  -4  -3   1   90.64    2.03
  -4  -3   1   87.81    2.15
  -4  -3   1   88.26    2.21
   3   3  -1   52.59    1.22
   3   3  -1   51.93    1.23
   3   3  -1   52.29    1.32
   3   3  -1   51.91    1.37
  -3  -3   1   51.53    1.23
  -3  -3   1   51.98    1.36
  -3  -3   1   53.10    1.35
  -3  -3   1   52.39    1.29
  -3  -3   1   52.04    1.23
   2   3  -1   48.09    1.16
   2   3  -1   46.69    1.21
   2   3  -1   48.73    1.18
   2   3  -1   48.96    1.17
  -2  -3   1   48.07    1.18
  -2  -3   1   47.71    1.18
  -2  -3   1   48.34    1.21
   1   3  -1   55.86    1.36
   1   3  -1   55.61    1.37
   1   3  -1   55.44    1.30
  -1  -3   1   54.94    1.36
  -1  -3   1   55.59    1.36
   0   3  -1    8.21    0.37
   0   3  -1    8.11    0.36
   0  -3   1    8.02    0.36
  -1   3  -1  154.38    3.47
  -1   3  -1  151.77    3.47
   1  -3   1  150.71    3.46
  -2   3  -1   57.53    1.51
  -2   3  -1   56.96    1.55
   2  -3   1   56.93    1.50
   2  -3   1   58.44    1.51
  -3   3  -1   47.04    1.58
  -3   3  -1   48.03    1.34
  -3   3  -1   47.95    1.35
   3  -3   1   45.89    1.31
   3  -3   1   48.09    1.34
   3  -3   1   50.40    1.39
  -4   3  -1   48.75    1.40
  -4   3  -1   48.35    1.41
  -4   3  -1   47.02    1.37
  -4   3  -1   47.81    1.54
   4  -3   1   48.10    1.37
   4  -3   1   45.94    1.34
   4  -3   1   49.23    1.42
  -5   3  -1   26.12    0.95
  -5   3  -1   27.27    0.95
  -5   3  -1   27.11    1.14
  -5   3  -1   25.64    0.99
   5  -3   1   27.38    0.93
   5  -3   1   27.55    1.02
   5  -3   1   25.20    0.93
  -6   3  -1   24.27    1.50
  -6   3  -1   23.21    0.91
  -6   3  -1   19.72    0.95
   6  -3   1   24.27    1.00
   6  -3   1   22.93    0.86
  -7   3  -1   43.04    1.40
  -7   3  -1   44.49    1.43
  -7   3  -1   45.69    1.75
   7  -3   1   42.07    1.34
   7  -3   1   42.91    1.56
   9   2  -1    0.20    0.22
  -9  -2   1    0.13    0.20
   8   2  -1    2.64    0.39
  -8  -2   1    2.13    0.33
   7   2  -1    2.80    0.36
   7   2  -1    3.10    0.40
  -7  -2   1    3.13    0.37
  -7  -2   1    2.31    0.47
   6   2  -1   36.08    1.19
   6   2  -1   35.76    1.16
  -6  -2   1   35.04    1.17
  -6  -2   1   35.10    1.12
  -6  -2   1   34.13    1.15
  -6  -2   1   35.43    1.17
   5   2  -1    2.18    0.27
   5   2  -1    2.02    0.27
   5   2  -1    2.08    0.26
  -5  -2   1    2.07    0.24
  -5  -2   1    1.68    0.23
  -5  -2   1    2.08    0.24
  -5  -2   1    1.85    0.23
   4   2  -1    8.97    0.44
   4   2  -1    8.96    0.44
  -4  -2   1    8.54    0.51
  -4  -2   1    9.34    0.39
  -4  -2   1    9.17    0.42
   3   2  -1  207.22    4.63
   3   2  -1  212.01    4.62
  -3  -2   1  211.44    4.43
  -3  -2   1  204.26    4.63
  -3  -2   1  209.76    4.51
  -3  -2   1  213.43    4.62
  -3  -2   1  205.69    4.43
   2   2  -1   23.32    0.54
   2   2  -1   19.82    0.59
   2   2  -1   21.94    0.53
  -2  -2   1   21.61    0.54
  -2  -2   1   20.65    0.53
  -2  -2   1   19.53    0.59
  -2  -2   1   19.71    0.57
   1   2  -1  502.21   10.78
   1   2  -1  507.17   10.78
  -1  -2   1  520.98   10.79
  -1  -2   1  511.34   10.79
   0   2  -1   94.16    2.02
   0   2  -1   94.35    2.14
   0   2  -1   94.73    2.13
   0  -2   1   92.90    2.13
   0  -2   1   94.99    2.14
  -1   2  -1    0.44    0.09
  -1   2  -1    0.43    0.09
   1  -2   1    0.60    0.11
   1  -2   1    0.38    0.08
  -2   2  -1   67.97    1.67
  -2   2  -1   68.14    1.51
  -2   2  -1   68.75    1.66
   2  -2   1   69.40    1.67
   2  -2   1   67.76    1.66
  -3   2  -1  209.53    4.78
  -3   2  -1  203.00    4.59
  -3   2  -1  204.25    4.46
  -3   2  -1  209.14    4.64
   3  -2   1  201.64    4.57
   3  -2   1  205.45    4.58
   3  -2   1  211.59    4.63
  -4   2  -1  143.98    3.38
  -4   2  -1  140.95    3.29
  -4   2  -1  142.15    3.28
  -4   2  -1  138.71    3.18
  -4   2  -1  144.68    3.50
   4  -2   1  135.86    3.25
   4  -2   1  141.75    3.36
   4  -2   1  145.00    3.28
  -5   2  -1  120.33    3.10
  -5   2  -1  116.27    2.74
  -5   2  -1  118.23    2.83
  -5   2  -1  117.36    2.96
  -5   2  -1  116.42    2.81
   5  -2   1  111.98    2.76
   5  -2   1  121.16    2.97
   5  -2   1  118.05    2.80
  -6   2  -1   10.24    0.71
  -6   2  -1    8.95    0.60
  -6   2  -1   10.26    0.53
  -6   2  -1    9.37    0.50
   6  -2   1    9.49    0.48
   6  -2   1    9.29    0.47
   6  -2   1    9.92    0.61
  -7   2  -1   59.78    1.66
  -7   2  -1   60.37    2.03
  -7   2  -1   61.76    1.70
   7  -2   1   61.70    1.95
   7  -2   1   58.11    1.61
   7  -2   1   56.43    1.61
  -8   2  -1   19.63    0.76
  -8   2  -1   20.02    1.12
  -8   2  -1   19.63    0.81
   8  -2   1   18.07    0.96
   8  -2   1   17.67    0.70
   9   1  -1   14.49    0.86
  -9  -1   1   14.48    0.88
   8   1  -1   35.17    1.61
  -8  -1   1   36.86    1.38
  -8  -1   1   37.59    1.56
   7   1  -1  109.36    2.88
  -7  -1   1  104.01    2.81
  -7  -1   1  109.26    2.87
   6   1  -1  201.69    4.72
  -6  -1   1  197.94    4.69
  -6  -1   1  195.58    4.65
  -6  -1   1  198.96    4.65
  -6  -1   1  203.73    4.70
   5   1  -1  224.66    5.08
   5   1  -1  219.37    5.00
   5   1  -1  224.98    5.07
  -5  -1   1  217.28    5.02
  -5  -1   1  220.02    5.03
  -5  -1   1  215.64    5.04
  -5  -1   1  227.97    5.07
   4   1  -1  375.99    8.05
   4   1  -1  368.27    8.08
   4   1  -1  371.26    8.09
  -4  -1   1  373.88    8.25
  -4  -1   1  367.74    8.06
  -4  -1   1  364.06    8.21
   3   1  -1  525.01   11.08
   3   1  -1  518.88   11.07
   3   1  -1  529.61   11.09
  -3  -1   1  520.50   11.08
  -3  -1   1  500.94   11.06
  -3  -1   1  516.14   11.07
   2   1  -1  416.37    8.79
   2   1  -1  413.08    8.79
   2   1  -1  417.29    8.79
  -2  -1   1  414.61    8.78
  -2  -1   1  408.45    8.78
  -2  -1   1  407.11    8.79
   1   1  -1  237.33    5.06
   1   1  -1  237.64    5.03
   1   1  -1  238.15    5.02
  -1  -1   1  234.79    5.07
  -1  -1   1  237.23    5.02
  -1  -1   1  238.45    5.03
  -1  -1   1  241.02    5.05
  -1   1  -1   12.52    0.39
  -1   1  -1   12.18    0.41
  -1   1  -1   12.42    0.38
   1  -1   1   12.12    0.38
   1  -1   1   12.94    0.38
   1  -1   1   12.10    0.30
  -2   1  -1   35.95    0.92
  -2   1  -1   37.02    0.92
  -2   1  -1   36.14    1.00
  -2   1  -1   36.65    0.87
   2  -1   1   36.68    0.87
   2  -1   1   36.55    0.94
   2  -1   1   35.27    0.91
   2  -1   1   36.89    0.92
  -3   1  -1   77.42    1.84
  -3   1  -1   78.83    1.99
  -3   1  -1   76.64    1.83
  -3   1  -1   79.60    1.93
  -3   1  -1   76.99    1.81
   3  -1   1   77.78    1.81
   3  -1   1   78.44    1.83
   3  -1   1   80.95    1.91
   3  -1   1   76.77    1.82
  -4   1  -1   54.10    1.50
  -4   1  -1   54.76    1.56
  -4   1  -1   54.66    1.38
  -4   1  -1   53.78    1.37
  -4   1  -1   55.60    1.37
   4  -1   1   54.71    1.36
   4  -1   1   52.58    1.37
   4  -1   1   54.37    1.37
  -5   1  -1    0.92    0.19
  -5   1  -1    0.87    0.19
  -5   1  -1    1.08    0.17
  -5   1  -1    0.64    0.13
  -5   1  -1    0.86    0.21
   5  -1   1    0.96    0.14
   5  -1   1    0.94    0.14
   5  -1   1    1.16    0.23
  -6   1  -1    0.51    0.13
  -6   1  -1    0.26    0.20
  -6   1  -1    0.31    0.12
  -6   1  -1    0.37    0.13
  -6   1  -1    0.40    0.19
   6  -1   1    0.51    0.19
   6  -1   1    0.35    0.11
   6  -1   1    0.55    0.12
  -7   1  -1    9.52    0.70
  -7   1  -1    9.36    0.49
  -7   1  -1    8.88    0.45
   7  -1   1    9.69    0.63
   7  -1   1    8.41    0.39
  -8   1  -1    0.94    0.17
  -8   1  -1    0.96    0.19
  -8   1  -1    0.89    0.31
   8  -1   1    1.19    0.31
   8  -1   1    1.08    0.16
  -9   1  -1    2.67    0.44
   9  -1   1    3.11    0.51
   9   0  -1   15.60    0.93
  -9   0   1   15.93    0.97
   8   0  -1   25.20    1.13
  -8   0   1   26.21    1.23
  -8   0   1   25.34    0.72
  -8   0   1   24.01    1.02
  -8   0   1   24.87    0.73
   7   0  -1   85.34    2.43
  -7   0   1   86.48    2.32
  -7   0   1   84.27    1.99
  -7   0   1   87.62    2.47
  -7   0   1   85.83    2.01
   6   0  -1   23.05    0.92
  -6   0   1   22.51    0.85
  -6   0   1   23.43    0.95
  -6   0   1   21.14    0.88
  -6   0   1   22.33    0.65
  -6   0   1   22.88    0.65
   5   0  -1    4.06    0.18
   5   0  -1    4.30    0.19
   5   0  -1    4.26    0.35
  -5   0   1    3.96    0.22
  -5   0   1    4.11    0.31
  -5   0   1    4.04    0.34
  -5   0   1    3.83    0.21
   4   0  -1   75.80    1.94
   4   0  -1   76.07    1.69
   4   0  -1   76.87    1.94
   4   0  -1   77.63    1.69
  -4   0   1   75.66    1.98
  -4   0   1   73.09    1.72
  -4   0   1   77.25    1.72
  -4   0   1   74.55    1.89
  -4   0   1   76.10    1.89
   3   0  -1    3.79    0.26
   3   0  -1    3.42    0.15
   3   0  -1    3.67    0.25
  -3   0   1    3.78    0.25
  -3   0   1    3.49    0.23
  -3   0   1    3.51    0.16
  -3   0   1    3.68    0.16
  -3   0   1    3.60    0.23
   2   0  -1    1.20    0.08
   2   0  -1    1.11    0.14
   2   0  -1    1.11    0.15
  -2   0   1    1.15    0.14
  -2   0   1    0.97    0.12
  -2   0   1    0.96    0.09
  -2   0   1    1.08    0.13
  -2   0   1    1.08    0.09
   1   0  -1   34.95    0.84
   1   0  -1   35.15    0.83
   1   0  -1   35.52    0.79
  -1   0   1   35.71    0.84
  -1   0   1   36.97    0.81
  -1   0  -1  131.79    2.87
  -1   0  -1  131.27    2.80
  -1   0  -1  127.61    2.77
  -1   0  -1  130.39    2.76
   1   0   1  127.31    2.82
   1   0   1  124.20    2.78
   1   0   1  128.95    2.76
  -2   0  -1   91.26    2.00
  -2   0  -1   90.07    2.10
  -2   0  -1   91.57    2.00
  -2   0  -1   89.10    2.03
  -2   0  -1   90.90    2.06
   2   0   1   89.97    1.99
   2   0   1   89.99    2.04
   2   0   1   90.12    2.06
   2   0   1   94.09    2.00
  -3   0  -1  145.79    3.31
  -3   0  -1  150.78    3.36
  -3   0  -1  151.55    3.25
  -3   0  -1  150.66    3.25
  -3   0  -1  150.74    3.39
  -3   0  -1  150.30    3.41
   3   0   1  147.37    3.36
   3   0   1  144.79    3.23
   3   0   1  151.18    3.24
   3   0   1  146.44    3.32
  -4   0  -1  218.47    4.73
  -4   0  -1  218.27    4.72
  -4   0  -1  219.56    4.93
  -4   0  -1  216.13    4.83
  -4   0  -1  220.26    4.97
  -4   0  -1  221.78    5.15
   4   0   1  218.75    4.91
   4   0   1  211.69    4.70
   4   0   1  219.07    4.84
  -5   0  -1  127.33    2.92
  -5   0  -1  128.07    3.06
  -5   0  -1  132.95    3.23
  -5   0  -1  129.17    3.12
  -5   0  -1  129.02    3.18
  -5   0  -1  133.34    2.94
   5   0   1  127.66    2.89
   5   0   1  130.73    3.16
   5   0   1  135.29    3.09
  -6   0  -1    8.92    0.37
  -6   0  -1    7.55    0.45
  -6   0  -1    7.87    0.54
  -6   0  -1    8.32    0.48
  -6   0  -1    8.19    0.36
  -6   0  -1    7.98    0.53
   6   0   1    8.04    0.32
   6   0   1    8.64    0.53
   6   0   1    8.58    0.47
   6   0   1    8.37    0.37
  -7   0  -1  169.35    4.17
  -7   0  -1  164.53    3.71
  -7   0  -1  161.54    3.68
   7   0   1  165.97    4.08
   7   0   1  158.26    3.59
  -8   0  -1   39.19    1.11
  -8   0  -1   40.64    1.13
  -8   0  -1   41.57    1.80
   8   0   1   41.44    1.55
  -9   0  -1   30.85    0.91
  -9   0  -1   33.72    1.44
  -9   0  -1   31.47    0.93
   9   0   1   33.09    1.38
   9  -1  -1    0.58    0.29
  -9   1   1    0.29    0.26
  -9   1   1    0.37    0.14
  -9   1   1    0.14    0.12
   8  -1  -1    0.61    0.22
  -8   1   1    0.66    0.16
  -8   1   1    0.65    0.14
  -8   1   1    0.74    0.28
  -8   1   1    0.22    0.21
   7  -1  -1    1.26    0.20
   7  -1  -1    1.87    0.19
   7  -1  -1    1.97    0.35
  -7   1   1    1.41    0.31
  -7   1   1    1.60    0.27
  -7   1   1    1.73    0.26
  -7   1   1    1.54    0.20
   6  -1  -1   21.33    0.91
   6  -1  -1   20.61    0.63
  -6   1   1   20.51    0.79
  -6   1   1   21.79    0.70
  -6   1   1   20.75    0.87
  -6   1   1   20.88    0.68
   5  -1  -1   45.27    1.13
   5  -1  -1   42.95    1.12
   5  -1  -1   45.72    1.37
  -5   1   1   42.51    1.25
  -5   1   1   43.12    1.33
  -5   1   1   43.69    1.16
  -5   1   1   44.08    1.15
   4  -1  -1    9.26    0.36
   4  -1  -1    9.23    0.46
   4  -1  -1    9.15    0.35
  -4   1   1    8.89    0.41
  -4   1   1    8.79    0.36
  -4   1   1    8.82    0.45
  -4   1   1    8.98    0.37
   3  -1  -1   19.59    0.65
   3  -1  -1   18.38    0.54
   3  -1  -1   18.89    0.55
  -3   1   1   18.20    0.63
  -3   1   1   18.53    0.55
  -3   1   1   18.98    0.59
  -3   1   1   18.93    0.56
   2  -1  -1   26.72    0.74
   2  -1  -1   26.47    0.69
   2  -1  -1   27.51    0.69
  -2   1   1   25.99    0.73
  -2   1   1   27.00    0.70
  -2   1   1   26.51    0.69
   1  -1  -1  146.16    3.14
   1  -1  -1  145.54    3.15
   1  -1  -1  146.57    3.15
  -1   1   1  141.74    3.14
  -1   1   1  145.85    3.15
  -1   1   1  147.26    3.15
  -1  -1  -1  141.72    3.04
  -1  -1  -1  142.76    3.05
  -1  -1  -1  140.92    3.05
   1   1   1  142.68    3.05
   1   1   1  143.10    3.04
   1   1   1  140.77    3.04
  -2  -1  -1   96.04    2.12
  -2  -1  -1   96.65    2.18
  -2  -1  -1   95.60    2.16
  -2  -1  -1   96.33    2.08
   2   1   1   97.26    2.17
   2   1   1   95.95    2.08
   2   1   1   95.81    2.18
  -3  -1  -1  107.67    2.54
  -3  -1  -1  110.36    2.57
  -3  -1  -1  113.37    2.42
  -3  -1  -1  114.69    2.59
  -3  -1  -1  112.48    2.56
   3   1   1  109.01    2.39
   3   1   1  111.72    2.57
   3   1   1  109.17    2.55
   3   1   1  111.62    2.56
  -4  -1  -1  780.85   16.30
  -4  -1  -1  769.33   16.49
  -4  -1  -1  775.81   16.30
  -4  -1  -1  791.70   16.73
  -4  -1  -1  768.64   16.58
  -4  -1  -1  782.31   16.53
   4   1   1  758.60   16.26
   4   1   1  777.52   16.53
   4   1   1  773.65   16.50
  -5  -1  -1  248.12    5.29
  -5  -1  -1  244.69    5.28
  -5  -1  -1  247.23    5.59
  -5  -1  -1  243.13    5.55
  -5  -1  -1  241.35    5.58
  -5  -1  -1  245.90    5.52
   5   1   1  248.47    5.65
   5   1   1  252.51    5.59
  -6  -1  -1   79.13    1.80
  -6  -1  -1   78.92    2.14
  -6  -1  -1   76.83    2.14
  -6  -1  -1   75.84    2.04
  -6  -1  -1   78.92    2.11
  -6  -1  -1   77.35    1.78
   6   1   1   78.08    2.13
   6   1   1   78.74    2.07
  -7  -1  -1   28.15    1.09
  -7  -1  -1   31.92    1.19
  -7  -1  -1   30.33    0.81
  -7  -1  -1   30.34    0.80
  -7  -1  -1   29.26    1.06
   7   1   1   30.77    1.15
   7   1   1   30.29    1.09
  -8  -1  -1   35.87    1.37
   8   1   1   35.35    1.26
   8   1   1   35.29    1.40
  -9  -1  -1    9.11    0.72
   9   1   1    8.81    0.68
   8  -2  -1   18.52    1.00
  -8   2   1   18.87    0.80
  -8   2   1   19.77    1.10
  -8   2   1   18.11    0.84
  -8   2   1   19.16    0.73
   7  -2  -1   41.96    1.21
   7  -2  -1   42.63    1.23
   7  -2  -1   47.32    1.94
  -7   2   1   43.82    1.29
  -7   2   1   44.16    1.31
  -7   2   1   46.55    1.69
  -7   2   1   42.73    1.36
   6  -2  -1   70.33    1.81
   6  -2  -1   71.76    1.83
   6  -2  -1   74.41    2.12
  -6   2   1   71.71    1.91
  -6   2   1   74.75    1.90
  -6   2   1   72.93    1.87
  -6   2   1   70.29    2.26
   5  -2  -1   56.10    1.49
   5  -2  -1   58.12    1.50
   5  -2  -1   57.25    1.69
  -5   2   1   58.17    1.55
  -5   2   1   57.24    1.65
  -5   2   1   59.20    1.54
  -5   2   1   57.88    1.52
   4  -2  -1  205.22    4.62
   4  -2  -1  200.90    4.45
   4  -2  -1  195.63    4.44
  -4   2   1  196.72    4.46
  -4   2   1  201.49    4.48
  -4   2   1  198.06    4.56
  -4   2   1  198.48    4.45
   3  -2  -1  229.53    5.04
   3  -2  -1  228.08    5.01
   3  -2  -1  234.02    5.11
  -3   2   1  224.73    5.05
  -3   2   1  227.36    5.03
  -3   2   1  225.65    5.01
  -3   2   1  225.12    4.97
   2  -2  -1  114.83    2.64
   2  -2  -1  117.26    2.64
  -2   2   1  114.88    2.63
  -2   2   1  117.58    2.65
  -2   2   1  115.77    2.64
   1  -2  -1   84.72    1.93
   1  -2  -1   82.31    1.93
  -1   2   1   83.35    1.86
  -1   2   1   84.02    1.93
  -1   2   1   83.48    1.94
   0  -2  -1  442.50   10.28
   0   2   1  568.70   10.39
   0   2   1  445.91   10.28
  -1  -2  -1  135.94    2.97
  -1  -2  -1  134.81    2.89
  -1  -2  -1  136.24    2.93
  -1  -2  -1  134.04    2.97
   1   2   1  135.43    2.97
   1   2   1  138.04    2.93
   1   2   1  137.04    2.97
  -2  -2  -1    0.41    0.07
  -2  -2  -1    0.72    0.10
  -2  -2  -1    0.46    0.07
  -2  -2  -1    0.47    0.08
   2   2   1    0.46    0.10
   2   2   1    0.43    0.08
  -3  -2  -1   96.61    2.13
  -3  -2  -1   97.24    2.22
  -3  -2  -1   95.15    2.26
  -3  -2  -1   98.27    2.29
   3   2   1   97.40    2.23
   3   2   1   94.04    2.28
   3   2   1  100.18    2.12
  -4  -2  -1   28.75    0.90
  -4  -2  -1   29.86    0.71
  -4  -2  -1   28.15    0.90
  -4  -2  -1   30.27    0.72
  -4  -2  -1   29.10    0.87
  -4  -2  -1   29.98    1.04
   4   2   1   28.90    0.91
  -5  -2  -1    0.05    0.05
  -5  -2  -1   -0.04    0.10
  -5  -2  -1    0.14    0.12
  -5  -2  -1    0.09    0.10
  -5  -2  -1    0.16    0.11
   5   2   1   -0.04    0.09
  -6  -2  -1   27.20    0.96
  -6  -2  -1   27.30    0.97
  -6  -2  -1   27.27    1.00
  -6  -2  -1   27.90    1.00
   6   2   1   28.00    0.99
  -7  -2  -1   61.00    1.91
  -7  -2  -1   67.72    1.91
  -7  -2  -1   64.26    1.90
   7   2   1   67.62    1.91
  -8  -2  -1    1.69    0.31
   8   2   1    1.51    0.29
   9   2   1    2.04    0.34
   7  -3  -1   17.80    0.94
   7  -3  -1   16.78    0.70
  -7   3   1   17.04    0.77
  -7   3   1   15.61    0.71
  -7   3   1   16.22    0.73
  -7   3   1   18.34    1.04
   6  -3  -1   24.65    1.04
   6  -3  -1   22.74    0.83
  -6   3   1   23.04    0.86
  -6   3   1   22.00    0.94
  -6   3   1   23.90    0.90
  -6   3   1   22.84    0.81
   5  -3  -1   13.76    0.62
   5  -3  -1   14.97    0.73
   5  -3  -1   14.12    0.61
  -5   3   1   13.71    0.64
  -5   3   1   13.66    0.67
  -5   3   1   13.78    0.63
  -5   3   1   13.75    0.64
   4  -3  -1   17.54    0.68
   4  -3  -1   18.26    0.74
   4  -3  -1   16.43    0.65
  -4   3   1   17.55    0.60
  -4   3   1   16.94    0.69
  -4   3   1   16.41    0.68
  -4   3   1   16.99    0.69
   3  -3  -1    7.52    0.41
   3  -3  -1    7.12    0.40
  -3   3   1    7.02    0.42
  -3   3   1    6.69    0.40
  -3   3   1    6.99    0.38
  -3   3   1    7.70    0.32
   2  -3  -1   13.76    0.53
   2  -3  -1   12.78    0.51
  -2   3   1   12.93    0.47
  -2   3   1   12.62    0.52
   1  -3  -1   35.06    0.97
   1  -3  -1   33.83    0.96
  -1   3   1   33.61    0.84
  -1   3   1   34.46    0.96
   0  -3  -1   42.89    1.13
   0  -3  -1   44.39    1.15
   0   3   1   44.04    1.14
   0   3   1   43.27    1.14
  -1  -3  -1   13.08    0.46
  -1  -3  -1   13.04    0.46
   1   3   1   13.94    0.40
   1   3   1   13.37    0.46
   1   3   1   13.12    0.46
  -2  -3  -1  157.25    3.42
  -2  -3  -1  157.74    3.49
  -2  -3  -1  157.37    3.49
  -2  -3  -1  155.98    3.43
   2   3   1  160.23    3.55
   2   3   1  160.17    3.44
   2   3   1  158.26    3.49
   2   3   1  161.45    3.49
  -3  -3  -1   28.22    0.72
  -3  -3  -1   27.15    0.73
  -3  -3  -1   28.02    0.73
  -3  -3  -1   26.91    0.77
   3   3   1   26.75    0.84
   3   3   1   28.14    0.74
   3   3   1   27.15    0.72
   3   3   1   28.10    0.72
  -4  -3  -1  268.39    5.76
  -4  -3  -1  268.31    5.85
  -4  -3  -1  266.89    5.67
  -4  -3  -1  260.88    5.69
  -4  -3  -1  260.92    5.89
   4   3   1  266.06    5.65
   4   3   1  263.45    5.93
   4   3   1  265.16    5.78
  -5  -3  -1  201.38    4.50
  -5  -3  -1  201.11    4.32
  -5  -3  -1  197.42    4.58
  -5  -3  -1  201.91    4.31
  -5  -3  -1  198.80    4.63
   5   3   1  202.36    4.65
  -6  -3  -1   52.68    1.58
  -6  -3  -1   52.99    1.56
  -6  -3  -1   53.31    1.54
   6   3   1   53.45    1.59
  -7  -3  -1   26.84    0.97
  -7  -3  -1   25.55    1.09
   7   3   1   25.61    1.02
  -8  -3  -1   90.47    2.47
   8   3   1   89.60    2.53
  -9  -3  -1   36.21    1.35
   9   3   1   36.76    1.40
 -10  -3  -1   38.04    1.48
  10   3   1   39.11    1.51
   7  -4  -1   -0.08    0.22
   7  -4  -1   -0.37    0.16
  -7   4   1    0.00    0.23
  -7   4   1    0.27    0.20
  -7   4   1    0.47    0.19
  -7   4   1    0.17    0.15
   6  -4  -1    1.76    0.27
   6  -4  -1    1.78    0.37
  -6   4   1    1.71    0.29
  -6   4   1    2.63    0.36
  -6   4   1    1.67    0.22
   5  -4  -1   11.07    0.59
   5  -4  -1   11.99    0.69
  -5   4   1   11.29    0.47
  -5   4   1   11.41    0.63
  -5   4   1   11.11    0.59
  -5   4   1   11.91    0.63
   4  -4  -1   51.13    1.52
   4  -4  -1   54.26    1.62
   4  -4  -1   56.15    1.56
  -4   4   1   54.45    1.59
  -4   4   1   53.08    1.56
  -4   4   1   52.14    1.36
  -4   4   1   53.20    1.51
   3  -4  -1   47.80    1.35
   3  -4  -1   43.21    1.31
  -3   4   1   45.34    1.34
  -3   4   1   44.76    1.13
  -3   4   1   44.26    1.26
  -3   4   1   45.50    1.36
   2  -4  -1   37.14    1.14
   2  -4  -1   40.90    1.17
  -2   4   1   39.09    1.18
  -2   4   1   38.66    1.16
  -2   4   1   37.25    1.02
   1  -4  -1   40.44    1.15
   1  -4  -1   39.95    1.14
  -1   4   1   40.38    1.16
  -1   4   1   39.36    0.96
  -1   4   1   37.01    1.40
   0  -4  -1  430.61    8.48
   0  -4  -1  346.71    8.30
   0   4   1  325.01    8.34
   0   4   1  431.44    8.48
  -1  -4  -1  500.81   10.87
  -1  -4  -1  512.80   10.87
   1   4   1  509.32   10.88
   1   4   1  500.09   10.86
   1   4   1  510.45   10.75
  -2  -4  -1  198.36    4.45
  -2  -4  -1  198.62    4.45
   2   4   1  200.69    4.44
   2   4   1  203.16    4.47
   2   4   1  198.36    4.45
   2   4   1  204.94    4.35
  -3  -4  -1  274.93    5.90
  -3  -4  -1  273.56    6.00
  -3  -4  -1  270.81    5.95
  -3  -4  -1  276.97    6.01
   3   4   1  281.73    5.94
   3   4   1  271.86    5.99
   3   4   1  277.18    5.99
   3   4   1  282.95    6.12
  -4  -4  -1  222.11    4.89
  -4  -4  -1  223.09    4.97
  -4  -4  -1  228.07    4.87
  -4  -4  -1  225.09    4.90
   4   4   1  221.44    4.90
   4   4   1  223.60    5.10
   4   4   1  223.66    4.88
   4   4   1  228.27    4.88
  -5  -4  -1  120.86    2.97
  -5  -4  -1  123.83    2.77
  -5  -4  -1  120.50    2.70
  -5  -4  -1  119.49    2.89
  -5  -4  -1  120.80    2.71
   5   4   1  121.85    3.00
   5   4   1  118.25    2.79
   5   4   1  117.86    2.77
   5   4   1  120.94    2.66
  -6  -4  -1  192.94    4.20
  -6  -4  -1  192.77    4.52
  -6  -4  -1  188.29    4.57
  -6  -4  -1  196.63    4.19
  -6  -4  -1  197.01    4.38
   6   4   1  192.75    4.60
  -7  -4  -1    1.12    0.20
  -7  -4  -1    1.31    0.34
   7   4   1    1.44    0.27
  -8  -4  -1   45.39    1.41
   8   4   1   43.52    1.55
  -9  -4  -1   16.71    0.82
   9   4   1   17.13    0.93
 -10  -4  -1   13.32    1.09
  10   4   1   13.83    0.86
   6  -5  -1   14.57    0.76
   6  -5  -1   15.86    0.89
  -6   5   1   16.44    0.86
  -6   5   1   14.41    0.79
  -6   5   1   14.74    0.99
   5  -5  -1   29.93    1.12
   5  -5  -1   32.38    1.53
  -5   5   1   29.21    0.85
  -5   5   1   28.70    1.05
  -5   5   1   32.48    1.19
  -5   5   1   30.05    1.14
   4  -5  -1   44.63    1.45
   4  -5  -1   44.72    1.42
  -4   5   1   42.41    1.10
  -4   5   1   44.27    1.46
  -4   5   1   43.71    1.43
  -4   5   1   42.75    1.29
   3  -5  -1   10.37    0.59
  -3   5   1   10.61    0.66
  -3   5   1   10.37    0.38
  -3   5   1   10.77    0.62
  -3   5   1   10.43    0.59
   2  -5  -1   54.36    1.55
   2  -5  -1   52.06    1.53
  -2   5   1   51.79    1.53
  -2   5   1   51.84    1.55
  -2   5   1   51.38    1.31
   1  -5  -1   17.63    0.72
   1  -5  -1   18.44    0.73
  -1   5   1   17.64    0.72
  -1   5   1   17.44    0.74
   0  -5  -1    6.40    0.41
   0  -5  -1    6.86    0.43
   0   5   1    6.34    0.40
   0   5   1    5.89    0.41
  -1  -5  -1  161.94    3.73
  -1  -5  -1  158.73    3.71
   1   5   1  156.05    3.69
   1   5   1  163.18    3.58
  -2  -5  -1    2.33    0.27
  -2  -5  -1    2.07    0.24
   2   5   1    3.00    0.19
   2   5   1    2.54    0.24
   2   5   1    2.26    0.27
   2   5   1    2.53    0.25
  -3  -5  -1    1.54    0.21
  -3  -5  -1    1.69    0.24
   3   5   1    2.12    0.18
   3   5   1    1.62    0.23
   3   5   1    1.39    0.18
   3   5   1    1.95    0.26
  -4  -5  -1   -0.02    0.08
  -4  -5  -1   -0.07    0.09
  -4  -5  -1    0.08    0.11
  -4  -5  -1    0.14    0.07
   4   5   1    0.04    0.09
   4   5   1   -0.03    0.08
   4   5   1    0.12    0.07
   4   5   1   -0.01    0.08
  -5  -5  -1    8.20    0.38
  -5  -5  -1    8.17    0.49
  -5  -5  -1    8.17    0.43
  -5  -5  -1    8.35    0.34
  -5  -5  -1    8.39    0.39
   5   5   1    8.66    0.52
   5   5   1    8.32    0.36
   5   5   1    8.21    0.35
   5   5   1    8.10    0.37
  -6  -5  -1    4.73    0.30
  -6  -5  -1    4.86    0.28
  -6  -5  -1    4.46    0.28
  -6  -5  -1    4.18    0.37
  -6  -5  -1    4.23    0.41
   6   5   1    4.52    0.23
   6   5   1    4.57    0.43
   6   5   1    4.67    0.24
  -7  -5  -1    0.69    0.20
  -7  -5  -1    0.86    0.21
  -7  -5  -1    0.23    0.18
  -7  -5  -1    0.59    0.11
   7   5   1    0.42    0.19
  -8  -5  -1   10.49    0.55
   8   5   1   10.43    0.96
  -9  -5  -1    5.75    0.48
   9   5   1    6.17    0.60
 -10  -5  -1    9.28    0.64
  10   5   1   10.22    0.75
   5  -6  -1    4.26    0.53
   5  -6  -1    4.97    0.53
  -5   6   1    5.76    0.61
  -5   6   1    5.06    0.54
   4  -6  -1    0.68    0.38
   4  -6  -1    0.93    0.26
  -4   6   1    0.51    0.23
  -4   6   1    1.04    0.26
  -4   6   1    0.43    0.18
   3  -6  -1    3.24    0.43
  -3   6   1    3.49    0.63
  -3   6   1    3.18    0.44
  -3   6   1    2.50    0.38
   2  -6  -1    3.17    0.41
  -2   6   1    3.05    0.23
  -2   6   1    3.13    0.44
  -2   6   1    3.58    0.43
   1  -6  -1    4.25    0.52
   1  -6  -1    4.15    0.42
  -1   6   1    4.73    0.45
  -1   6   1    4.58    0.46
   0  -6  -1   14.69    0.69
   0  -6  -1   15.55    0.71
   0   6   1   15.40    0.72
   0   6   1   15.32    0.70
  -1  -6  -1   18.52    0.78
  -1  -6  -1   19.30    0.78
   1   6   1   19.29    0.65
   1   6   1   19.03    0.78
   1   6   1   19.71    0.80
   1   6   1   20.49    0.91
  -2  -6  -1    4.65    0.39
  -2  -6  -1    4.31    0.35
   2   6   1    4.14    0.35
   2   6   1    4.70    0.27
   2   6   1    4.78    0.33
  -3  -6  -1   32.11    1.05
  -3  -6  -1   35.37    1.09
   3   6   1   33.34    0.92
   3   6   1   35.99    1.09
   3   6   1   33.75    1.05
   3   6   1   34.02    1.07
  -4  -6  -1   21.86    0.78
  -4  -6  -1   23.33    0.80
   4   6   1   22.79    0.67
   4   6   1   23.65    0.80
   4   6   1   21.54    0.75
   4   6   1   23.03    0.86
  -5  -6  -1   12.84    0.54
  -5  -6  -1   13.56    0.43
  -5  -6  -1   12.22    0.53
  -5  -6  -1   12.86    0.55
   5   6   1   13.17    0.47
   5   6   1   13.03    0.53
   5   6   1   12.62    0.66
   5   6   1   12.81    0.51
  -6  -6  -1  100.05    2.74
  -6  -6  -1  107.10    2.39
  -6  -6  -1  105.95    2.49
  -6  -6  -1  102.98    2.48
  -6  -6  -1  104.53    2.58
   6   6   1  104.46    2.79
   6   6   1  102.83    2.43
   6   6   1  105.23    2.44
  -7  -6  -1   15.50    0.54
  -7  -6  -1   14.61    0.69
  -7  -6  -1   13.40    0.57
  -7  -6  -1   14.96    0.54
   7   6   1   14.60    0.80
  -8  -6  -1   55.71    1.49
   8   6   1   55.38    1.86
  -9  -6  -1   38.59    1.18
   9   6   1   36.75    1.49
   4  -7  -1   17.71    0.90
   4  -7  -1   16.30    0.91
  -4   7   1   16.57    0.93
  -4   7   1   14.04    0.62
   3  -7  -1    9.66    0.67
  -3   7   1    8.09    0.40
  -3   7   1    8.90    0.69
   2  -7  -1   23.16    1.03
  -2   7   1   24.31    1.10
   1  -7  -1   40.64    1.39
  -1   7   1   37.12    1.35
  -1   7   1   40.98    1.43
   0  -7  -1   36.34    1.27
   0  -7  -1   35.78    1.26
   0   7   1   36.65    1.29
   0   7   1   35.79    0.98
   0   7   1   34.39    1.24
  -1  -7  -1  108.14    2.76
  -1  -7  -1  101.96    2.73
   1   7   1  107.32    2.76
   1   7   1  105.17    2.53
   1   7   1  103.33    2.73
   1   7   1  104.92    2.50
  -2  -7  -1   87.82    2.33
  -2  -7  -1   84.68    2.31
   2   7   1   89.21    2.36
   2   7   1   86.71    2.33
  -3  -7  -1   57.26    1.67
  -3  -7  -1   59.48    1.69
   3   7   1   60.26    1.68
   3   7   1   59.90    1.64
   3   7   1   53.12    1.45
   3   7   1   58.16    1.65
  -4  -7  -1   38.09    1.21
  -4  -7  -1   37.43    1.19
   4   7   1   35.98    1.20
   4   7   1   38.62    1.20
   4   7   1   37.01    1.24
   4   7   1   38.69    1.01
  -5  -7  -1   72.52    1.90
  -5  -7  -1   68.08    1.87
   5   7   1   70.93    1.99
   5   7   1   72.17    2.05
   5   7   1   68.65    1.68
   5   7   1   72.63    1.88
  -6  -7  -1   87.37    2.17
  -6  -7  -1   85.46    2.12
  -6  -7  -1   83.09    2.14
   6   7   1   78.29    2.44
   6   7   1   85.97    2.11
   6   7   1   86.49    2.41
  -7  -7  -1   23.56    0.87
  -7  -7  -1   23.67    0.67
  -7  -7  -1   22.53    0.78
  -7  -7  -1   23.59    0.80
   7   7   1   22.36    0.71
   7   7   1   24.36    1.17
  -8  -7  -1    6.23    0.33
  -8  -7  -1    5.72    0.59
  -8  -7  -1    6.70    0.37
  -8  -7  -1    5.96    0.34
   8   7   1    6.36    0.60
  -9  -7  -1   11.50    0.50
   9   7   1   12.20    0.82
   2  -8  -1    4.84    0.57
  -2   8   1    6.32    0.63
   1  -8  -1    9.67    0.89
  -1   8   1    9.99    0.74
   0  -8  -1    1.85    0.33
   0   8   1    1.74    0.28
   0   8   1    2.36    0.39
  -1  -8  -1    6.96    0.59
  -1  -8  -1    7.07    0.58
   1   8   1    7.07    0.41
   1   8   1    7.68    0.40
   1   8   1    7.16    0.61
  -2  -8  -1   17.16    0.99
  -2  -8  -1   18.13    0.87
   2   8   1   18.04    0.70
   2   8   1   16.91    0.64
   2   8   1   17.58    0.86
  -3  -8  -1    3.31    0.43
  -3  -8  -1    2.90    0.42
   3   8   1    2.41    0.35
   3   8   1    2.59    0.26
  -4  -8  -1    0.27    0.17
  -4  -8  -1    0.24    0.20
   4   8   1    0.61    0.13
   4   8   1    0.38    0.18
   4   8   1    0.41    0.22
  -5  -8  -1    3.99    0.43
  -5  -8  -1    2.88    0.37
   5   8   1    3.66    0.39
   5   8   1    4.50    0.46
  -6  -8  -1    0.66    0.18
  -6  -8  -1    0.39    0.20
   6   8   1    0.19    0.21
   6   8   1    0.46    0.17
  -7  -8  -1   -0.22    0.12
  -7  -8  -1   -0.26    0.13
   7   8   1    0.07    0.13
   7   8   1    0.11    0.19
  -8  -8  -1    7.12    0.41
  -8  -8  -1    7.59    0.46
   8   8   1    7.23    0.67
  -1   9   1    0.02    0.24
   0  -9  -1    0.23    0.25
   0   9   1    0.25    0.26
  -1  -9  -1    4.24    0.55
   1   9   1    3.93    0.38
   1   9   1    4.19    0.58
   1   9   1    4.22    0.31
  -2  -9  -1    3.46    0.50
   2   9   1    3.18    0.32
   2   9   1    3.98    0.51
   2   9   1    2.91    0.29
  -3  -9  -1   11.09    0.71
  -3  -9  -1   12.12    0.74
   3   9   1   11.77    0.73
   3   9   1   10.73    0.59
  -4  -9  -1    8.79    0.69
  -4  -9  -1    9.03    0.64
   4   9   1   10.15    0.60
   4   9   1    8.75    0.62
   4   9   1    8.38    0.42
  -5  -9  -1    6.09    0.52
  -5  -9  -1    6.61    0.55
   5   9   1    6.32    0.54
   5   9   1    6.20    0.50
  -6  -9  -1   27.61    1.04
  -6  -9  -1   27.46    1.07
   6   9   1   27.05    1.02
   6   9   1   28.30    1.25
  -7  -9  -1   17.44    0.80
  -7  -9  -1   16.17    1.08
   7   9   1   17.40    0.95
   7   9   1   15.44    0.71
  -2 -10  -1   15.05    0.91
   2  10   1   14.79    0.62
   2  10   1   11.38    0.62
   2  10   1   14.55    0.92
  -3 -10  -1   13.41    0.84
   3  10   1   12.00    0.64
   3  10   1   12.69    0.91
  -4 -10  -1   10.03    0.72
   4  10   1   11.54    0.77
   4  10   1   10.95    0.64
  -5 -10  -1    8.71    0.63
  -5 -10  -1    5.91    0.57
   5  10   1    7.26    0.76
   5  10   1    6.56    0.61
   4  10  -2    0.04    0.25
  -4 -10   2    0.34    0.27
   3  10  -2   -0.47    0.30
  -3 -10   2    0.02    0.22
   7   9  -2    9.93    0.55
   7   9  -2   11.50    0.74
  -7  -9   2   10.46    0.57
  -7  -9   2   11.55    0.63
   6   9  -2   11.65    0.95
   6   9  -2   11.85    0.64
  -6  -9   2   12.79    0.66
  -6  -9   2   12.74    0.70
   5   9  -2   19.53    0.85
   5   9  -2   19.71    0.87
  -5  -9   2   19.14    0.88
  -5  -9   2   19.86    0.91
   4   9  -2   32.80    1.23
   4   9  -2   31.67    1.09
  -4  -9   2   32.07    1.25
  -4  -9   2   31.65    1.33
   3   9  -2   14.94    0.83
  -3  -9   2   14.13    0.82
  -3  -9   2   15.86    0.86
   2   9  -2   12.54    0.55
   2   9  -2   13.65    0.80
  -2  -9   2   12.57    0.79
   1   9  -2   13.15    0.66
   1   9  -2   15.43    0.89
   1   9  -2   13.14    0.59
  -1  -9   2   15.01    0.88
   0   9  -2   17.35    0.85
   0   9  -2   19.17    1.03
   0  -9   2   17.40    0.98
   8   8  -2   20.26    1.02
  -8  -8   2   19.70    0.73
  -8  -8   2   18.88    0.70
   7   8  -2   13.17    0.78
  -7  -8   2   12.49    0.58
  -7  -8   2   13.93    0.64
   6   8  -2   18.93    0.75
   6   8  -2   20.22    0.92
  -6  -8   2   20.87    0.83
  -6  -8   2   19.85    0.80
   5   8  -2   12.89    0.57
   5   8  -2   13.14    0.63
   5   8  -2   12.99    0.68
  -5  -8   2   12.05    0.63
  -5  -8   2   12.70    0.68
   4   8  -2    8.28    0.51
   4   8  -2    9.13    0.58
   4   8  -2    8.48    0.41
  -4  -8   2    8.40    0.58
  -4  -8   2    8.77    0.55
   3   8  -2    6.74    0.43
   3   8  -2    6.58    0.52
  -3  -8   2    7.48    0.55
  -3  -8   2    6.73    0.52
   2   8  -2    1.30    0.19
   2   8  -2    1.15    0.27
   2   8  -2    1.21    0.18
  -2  -8   2    0.91    0.27
  -2  -8   2    0.82    0.25
   1   8  -2    0.31    0.18
   1   8  -2    0.59    0.24
   0   8  -2   -0.28    0.15
   0  -8   2    0.00    0.18
  -1   8  -2    0.61    0.24
  -1   8  -2    0.86    0.29
   1  -8   2    0.73    0.28
  -2   8  -2    0.64    0.34
  -2   8  -2    0.32    0.26
  -2   8  -2    0.41    0.14
   2  -8   2    0.48    0.25
   9   7  -2    6.62    0.62
   8   7  -2    2.08    0.35
  -8  -7   2    1.84    0.21
   7   7  -2    2.00    0.35
   7   7  -2    2.06    0.20
  -7  -7   2    1.85    0.24
  -7  -7   2    1.68    0.23
   6   7  -2    9.06    0.54
   6   7  -2    8.99    0.45
   6   7  -2   10.10    0.63
   6   7  -2    9.48    0.45
  -6  -7   2   10.22    0.49
  -6  -7   2    9.47    0.50
  -6  -7   2    9.20    0.59
   5   7  -2   -0.22    0.10
   5   7  -2   -0.03    0.12
   5   7  -2   -0.10    0.12
   5   7  -2    0.00    0.14
  -5  -7   2   -0.32    0.13
  -5  -7   2    0.19    0.16
  -5  -7   2   -0.16    0.11
   4   7  -2    9.74    0.46
   4   7  -2    9.92    0.55
   4   7  -2   10.04    0.55
   4   7  -2   10.25    0.54
  -4  -7   2    9.93    0.56
  -4  -7   2    9.57    0.57
   3   7  -2    4.26    0.38
   3   7  -2    3.95    0.41
   3   7  -2    3.97    0.35
   3   7  -2    4.87    0.28
  -3  -7   2    4.43    0.40
  -3  -7   2    4.04    0.41
   2   7  -2   11.68    0.41
   2   7  -2   11.34    0.46
   2   7  -2   11.78    0.65
   2   7  -2   12.18    0.49
   2   7  -2   11.65    0.41
  -2  -7   2   11.56    0.63
  -2  -7   2   12.19    0.65
   1   7  -2   22.72    0.80
   1   7  -2   23.57    0.97
  -1  -7   2   23.63    0.96
  -1  -7   2   21.45    0.93
   0   7  -2   25.17    0.92
   0   7  -2   23.96    1.02
   0   7  -2   23.21    1.00
   0  -7   2   25.44    1.04
   0  -7   2   24.48    1.01
  -1   7  -2   21.41    0.70
  -1   7  -2   23.07    0.96
   1  -7   2   21.99    1.00
  -2   7  -2   21.95    1.04
  -2   7  -2   21.48    0.78
  -2   7  -2   23.19    1.03
   2  -7   2   21.56    1.00
  -3   7  -2   12.53    0.60
  -3   7  -2   12.79    0.82
  -3   7  -2   13.38    0.86
   3  -7   2   12.56    0.78
   3  -7   2   12.92    0.69
  -4   7  -2   14.11    0.71
  -4   7  -2   13.65    0.93
  -4   7  -2   14.48    0.87
   4  -7   2   12.92    0.74
   4  -7   2   13.52    1.24
  -9  -6   2    7.98    0.41
   8   6  -2   34.22    1.34
   7   6  -2   23.11    1.00
   7   6  -2   23.62    0.98
  -7  -6   2   23.20    1.02
  -7  -6   2   21.95    0.67
  -7  -6   2   23.30    0.70
   6   6  -2   25.01    0.73
   6   6  -2   25.75    0.96
   6   6  -2   26.61    1.04
  -6  -6   2   25.61    1.02
  -6  -6   2   27.05    0.81
  -6  -6   2   26.39    1.17
  -6  -6   2   25.24    0.80
   5   6  -2   53.70    1.50
   5   6  -2   52.18    1.39
   5   6  -2   52.30    1.38
   5   6  -2   54.30    1.59
  -5  -6   2   52.32    1.42
  -5  -6   2   50.75    1.56
  -5  -6   2   54.53    1.44
  -5  -6   2   52.39    1.55
   4   6  -2  152.10    3.63
   4   6  -2  153.51    3.56
   4   6  -2  155.62    3.54
   4   6  -2  150.49    3.54
  -4  -6   2  148.38    3.56
  -4  -6   2  157.79    3.59
   3   6  -2   75.95    2.07
   3   6  -2   67.47    1.81
   3   6  -2   68.77    1.70
   3   6  -2   67.77    1.83
  -3  -6   2   69.14    1.85
  -3  -6   2   67.41    1.83
   2   6  -2   50.32    1.25
   2   6  -2   50.97    1.33
   2   6  -2   48.96    1.44
   2   6  -2   50.79    1.26
   2   6  -2   52.01    1.82
   2   6  -2   51.75    1.21
  -2  -6   2   49.70    1.47
  -2  -6   2   52.45    1.49
   1   6  -2   73.47    1.97
   1   6  -2   71.22    1.95
   1   6  -2   72.17    1.81
  -1  -6   2   72.83    1.97
  -1  -6   2   70.83    1.96
   0   6  -2   17.47    0.82
   0   6  -2   16.32    0.74
   0   6  -2   17.80    0.78
   0  -6   2   17.56    0.78
   0  -6   2   16.96    0.76
  -1   6  -2   85.62    2.28
  -1   6  -2   81.94    2.31
  -1   6  -2   84.98    2.33
   1  -6   2   86.71    2.32
   1  -6   2   82.83    2.31
  -2   6  -2   47.57    1.54
  -2   6  -2   46.21    1.53
  -2   6  -2   44.17    1.52
  -2   6  -2   47.50    1.35
   2  -6   2   46.75    1.51
  -3   6  -2    5.91    0.58
  -3   6  -2    6.01    0.69
  -3   6  -2    5.82    0.53
  -3   6  -2    6.01    0.42
   3  -6   2    6.79    0.47
   3  -6   2    6.48    0.54
  -4   6  -2    8.11    0.53
  -4   6  -2    9.15    0.67
  -4   6  -2    9.15    0.76
  -4   6  -2    7.85    0.66
   4  -6   2    8.48    0.64
   4  -6   2    8.95    0.59
  -5   6  -2    3.97    0.62
  -5   6  -2    3.40    0.49
   5  -6   2    3.84    0.44
   5  -6   2    3.74    0.52
  -9  -5   2   48.47    1.42
   8   5  -2   72.22    2.30
  -8  -5   2   66.96    1.78
   7   5  -2   57.07    1.78
   7   5  -2   57.16    1.76
  -7  -5   2   58.30    1.70
  -7  -5   2   55.36    1.75
  -7  -5   2   57.87    1.43
   6   5  -2   78.22    2.12
   6   5  -2   78.75    2.17
  -6  -5   2   78.98    2.38
  -6  -5   2   76.74    2.13
  -6  -5   2   80.42    1.84
  -6  -5   2   75.47    1.82
   5   5  -2   41.94    1.31
   5   5  -2   42.13    1.26
   5   5  -2   41.59    1.06
  -5  -5   2   39.93    1.09
  -5  -5   2   41.00    1.27
  -5  -5   2   41.27    1.31
  -5  -5   2   42.10    1.11
   4   5  -2   21.68    0.79
   4   5  -2   20.41    0.68
   4   5  -2   21.12    0.68
   4   5  -2   21.84    0.75
  -4  -5   2   20.69    0.78
  -4  -5   2   20.97    0.70
  -4  -5   2   21.68    0.71
  -4  -5   2   21.70    0.77
   3   5  -2   31.10    0.94
   3   5  -2   30.92    0.95
   3   5  -2   31.51    0.90
   3   5  -2   30.40    0.92
  -3  -5   2   32.08    1.17
  -3  -5   2   31.36    0.95
  -3  -5   2   30.80    0.95
   2   5  -2   25.46    0.83
   2   5  -2   26.13    0.86
   2   5  -2   26.38    0.78
   2   5  -2   25.75    0.72
  -2  -5   2   26.63    0.86
  -2  -5   2   25.55    0.85
   1   5  -2    3.91    0.22
   1   5  -2    3.80    0.33
   1   5  -2    3.84    0.26
   1   5  -2    3.91    0.32
  -1  -5   2    4.33    0.35
  -1  -5   2    4.27    0.34
   0   5  -2    6.94    0.45
   0   5  -2    7.15    0.41
   0   5  -2    7.28    0.44
   0  -5   2    7.59    0.46
  -1   5  -2    9.96    0.55
  -1   5  -2    9.65    0.54
  -1   5  -2   10.02    0.57
   1  -5   2   10.10    0.56
   1  -5   2   12.62    0.68
  -2   5  -2    0.32    0.18
  -2   5  -2   -0.01    0.16
  -2   5  -2    0.35    0.19
   2  -5   2    0.17    0.17
   2  -5   2    0.15    0.14
  -3   5  -2    1.87    0.28
  -3   5  -2    1.58    0.28
  -3   5  -2    1.39    0.26
  -3   5  -2    1.70    0.30
   3  -5   2    1.85    0.27
   3  -5   2    1.70    0.28
  -4   5  -2   13.86    0.67
  -4   5  -2   14.96    0.82
  -4   5  -2   13.85    0.74
  -4   5  -2   14.12    0.84
   4  -5   2   14.28    0.69
   4  -5   2   13.25    0.72
  -5   5  -2    0.03    0.20
  -5   5  -2    0.07    0.23
  -5   5  -2    0.31    0.17
  -5   5  -2   -0.13    0.19
   5  -5   2   -0.13    0.15
   5  -5   2    0.50    0.20
  -6   5  -2   12.46    0.75
  -6   5  -2   11.21    0.72
  -6   5  -2   10.72    0.84
   6  -5   2   12.40    0.75
   6  -5   2   10.50    0.70
 -10  -4   2   13.69    0.77
  -9  -4   2   13.90    0.71
  -8  -4   2    3.86    0.37
   7   4  -2    0.12    0.17
   7   4  -2    0.12    0.15
  -7  -4   2    0.30    0.14
  -7  -4   2    0.26    0.17
  -7  -4   2    0.04    0.17
   6   4  -2    5.06    0.42
   6   4  -2    5.42    0.45
  -6  -4   2    5.10    0.39
  -6  -4   2    5.29    0.43
  -6  -4   2    5.15    0.30
  -6  -4   2    5.06    0.41
   5   4  -2    0.12    0.11
   5   4  -2    0.29    0.12
  -5  -4   2    0.23    0.08
  -5  -4   2    0.24    0.13
  -5  -4   2    0.28    0.14
  -5  -4   2    0.13    0.07
  -5  -4   2    0.22    0.12
  -5  -4   2    0.20    0.07
   4   4  -2  160.85    3.76
   4   4  -2  164.29    3.72
   4   4  -2  160.81    3.55
   4   4  -2  159.38    3.54
  -4  -4   2  162.96    3.73
  -4  -4   2  158.44    3.76
  -4  -4   2  157.82    3.57
  -4  -4   2  166.15    3.58
   3   4  -2   59.96    1.46
   3   4  -2   55.80    1.53
   3   4  -2   59.23    1.48
   3   4  -2   59.59    1.53
  -3  -4   2   58.84    1.46
  -3  -4   2   60.45    1.47
  -3  -4   2   58.62    1.54
   2   4  -2   10.93    0.43
   2   4  -2   10.51    0.44
   2   4  -2   11.02    0.39
   2   4  -2   10.78    0.45
  -2  -4   2   10.77    0.42
  -2  -4   2   11.25    0.45
  -2  -4   2   10.54    0.44
   1   4  -2  241.76    5.20
   1   4  -2  240.55    5.33
   1   4  -2  241.20    5.34
   1   4  -2  238.55    5.18
  -1  -4   2  244.18    5.34
  -1  -4   2  237.95    5.33
   0   4  -2  109.63    2.54
   0   4  -2  108.94    2.60
   0  -4   2  108.69    2.64
   0  -4   2  106.34    2.93
  -1   4  -2  159.38    3.74
  -1   4  -2  161.36    3.74
  -1   4  -2  164.65    3.74
   1  -4   2  157.26    3.73
  -2   4  -2  151.48    3.58
  -2   4  -2  148.37    3.53
  -2   4  -2  146.76    3.51
   2  -4   2  145.29    3.50
   2  -4   2  147.39    3.51
  -3   4  -2   64.66    1.87
  -3   4  -2   61.74    1.76
  -3   4  -2   62.68    1.78
   3  -4   2   64.77    1.77
   3  -4   2   62.79    1.75
   3  -4   2   64.67    1.70
  -4   4  -2   33.80    1.15
  -4   4  -2   34.83    1.19
  -4   4  -2   34.62    1.30
  -4   4  -2   34.09    1.14
   4  -4   2   31.56    1.11
   4  -4   2   33.73    1.12
   4  -4   2   33.88    1.14
  -5   4  -2   16.16    1.04
  -5   4  -2   18.35    0.97
  -5   4  -2   17.44    0.79
  -5   4  -2   19.00    0.85
   5  -4   2   18.27    0.80
   5  -4   2   18.65    0.83
  -6   4  -2   31.51    1.17
  -6   4  -2   31.99    1.22
  -6   4  -2   34.26    1.44
   6  -4   2   33.68    1.28
   6  -4   2   31.77    1.16
  -7   4  -2   14.68    0.79
  -7   4  -2   15.17    1.00
  -7   4  -2   13.60    0.76
   7  -4   2   13.29    0.74
   7  -4   2   14.69    0.84
 -10  -3   2   -0.15    0.20
  -9  -3   2   19.82    0.92
  -8  -3   2   47.12    1.49
   7   3  -2   69.52    2.03
  -7  -3   2   67.52    1.95
  -7  -3   2   70.49    1.87
  -7  -3   2   67.05    2.00
  -7  -3   2   66.89    1.97
   6   3  -2   72.62    1.99
   6   3  -2   71.00    2.01
  -6  -3   2   72.79    2.02
  -6  -3   2   74.38    1.86
  -6  -3   2   72.29    1.96
  -6  -3   2   71.42    1.98
   5   3  -2    9.16    0.50
   5   3  -2    9.58    0.50
  -5  -3   2    8.99    0.49
  -5  -3   2    9.37    0.46
  -5  -3   2    8.62    0.47
  -5  -3   2    8.78    0.39
   4   3  -2   67.43    1.94
   4   3  -2   62.57    1.67
  -4  -3   2   68.21    1.88
  -4  -3   2   63.60    1.50
  -4  -3   2   65.92    1.48
  -4  -3   2   63.48    1.47
  -4  -3   2   62.56    1.80
   3   3  -2  265.16    5.77
   3   3  -2  264.05    5.74
   3   3  -2  261.01    5.63
   3   3  -2  258.00    5.61
  -3  -3   2  257.17    5.77
  -3  -3   2  263.89    5.74
  -3  -3   2  266.13    5.64
  -3  -3   2  261.40    5.63
   2   3  -2  267.32    5.76
   2   3  -2  263.01    5.78
   2   3  -2  273.58    5.76
   2   3  -2  264.06    5.75
  -2  -3   2  259.49    5.79
  -2  -3   2  270.65    5.77
  -2  -3   2  268.63    5.77
   1   3  -2  111.08    2.48
   1   3  -2  113.70    2.45
   1   3  -2  112.51    2.56
   1   3  -2  111.30    2.57
  -1  -3   2  111.09    2.49
  -1  -3   2  113.34    2.57
  -1  -3   2  110.65    2.56
   0   3  -2  228.06    5.00
   0   3  -2  227.63    5.05
   0  -3   2  232.17    5.06
  -1   3  -2  157.56    3.54
  -1   3  -2  153.13    3.54
  -1   3  -2  154.93    3.53
   1  -3   2  156.72    3.54
   1  -3   2  151.54    3.53
  -2   3  -2   72.88    1.85
  -2   3  -2   71.98    1.84
  -2   3  -2   73.43    1.92
   2  -3   2   72.93    1.84
   2  -3   2   70.76    1.83
  -3   3  -2  112.50    2.80
  -3   3  -2  109.59    2.68
  -3   3  -2  105.86    2.65
   3  -3   2  105.69    2.65
   3  -3   2  112.56    2.69
   3  -3   2  112.36    2.67
  -4   3  -2   13.54    0.74
  -4   3  -2   13.21    0.63
  -4   3  -2   14.29    0.64
  -4   3  -2   14.71    0.75
   4  -3   2   14.03    0.61
   4  -3   2   14.70    0.63
   4  -3   2   13.83    0.62
  -5   3  -2   28.23    1.00
  -5   3  -2   28.30    1.01
  -5   3  -2   28.47    1.19
  -5   3  -2   28.38    1.05
   5  -3   2   28.43    0.98
   5  -3   2   27.16    0.95
   5  -3   2   28.76    1.04
  -6   3  -2    1.90    0.28
  -6   3  -2    2.62    0.51
  -6   3  -2    2.47    0.33
   6  -3   2    2.15    0.29
   6  -3   2    1.99    0.32
  -7   3  -2    7.18    0.54
  -7   3  -2    7.00    0.49
  -7   3  -2    7.39    0.73
   7  -3   2    6.93    0.50
   7  -3   2    7.15    0.59
   9   2  -2   46.54    1.68
  -9  -2   2   44.87    1.61
   8   2  -2   53.54    1.77
  -8  -2   2   53.33    1.70
   7   2  -2  115.99    2.97
  -7  -2   2  109.21    2.94
  -7  -2   2  113.80    2.87
  -7  -2   2  107.03    2.87
   6   2  -2   23.20    0.91
   6   2  -2   23.41    0.93
  -6  -2   2   22.86    0.89
  -6  -2   2   23.21    0.88
  -6  -2   2   24.52    0.87
  -6  -2   2   22.61    0.88
   5   2  -2  151.31    3.56
   5   2  -2  149.23    3.52
   5   2  -2  150.92    3.54
  -5  -2   2  147.63    3.50
  -5  -2   2  145.10    3.49
  -5  -2   2  142.88    3.52
  -5  -2   2  152.63    3.45
   4   2  -2   84.61    2.09
   4   2  -2   83.87    2.07
   4   2  -2   82.70    2.06
  -4  -2   2   84.46    2.27
  -4  -2   2   80.82    2.07
  -4  -2   2   82.56    2.11
   3   2  -2  252.59    5.57
   3   2  -2  254.01    5.40
   3   2  -2  251.58    5.59
   3   2  -2  258.02    5.59
  -3  -2   2  253.56    5.61
  -3  -2   2  261.00    5.56
  -3  -2   2  255.55    5.57
  -3  -2   2  255.16    5.42
  -3  -2   2  252.49    5.41
   2   2  -2  391.79    8.42
   2   2  -2  391.30    8.35
   2   2  -2  397.38    8.41
   2   2  -2  385.92    8.34
  -2  -2   2  393.57    8.35
  -2  -2   2  397.13    8.44
  -2  -2   2  394.76    8.39
  -2  -2   2  399.86    8.35
   1   2  -2   17.18    0.50
   1   2  -2   16.11    0.49
  -1  -2   2   16.74    0.48
  -1  -2   2   16.77    0.41
  -1  -2   2   16.77    0.50
  -1  -2   2   17.30    0.50
   0   2  -2   16.62    0.48
   0   2  -2   16.40    0.51
   0   2  -2   16.16    0.52
   0  -2   2   16.46    0.51
   0  -2   2   16.09    0.41
  -1   2  -2    9.44    0.39
  -1   2  -2    9.42    0.38
  -1   2  -2    9.85    0.39
   1  -2   2    9.55    0.38
  -2   2  -2   18.83    0.68
  -2   2  -2   18.43    0.63
  -2   2  -2   18.98    0.62
   2  -2   2   17.90    0.61
   2  -2   2   19.45    0.63
   2  -2   2   18.61    0.58
  -3   2  -2    0.36    0.14
  -3   2  -2    0.52    0.12
  -3   2  -2    0.49    0.12
   3  -2   2    0.75    0.14
   3  -2   2    0.47    0.12
   3  -2   2    0.53    0.11
  -4   2  -2   22.48    0.77
  -4   2  -2   24.10    0.80
  -4   2  -2   22.68    0.84
  -4   2  -2   23.01    0.92
   4  -2   2   22.46    0.76
   4  -2   2   23.21    0.78
   4  -2   2   23.19    0.82
  -5   2  -2   12.36    0.56
  -5   2  -2   12.78    0.58
  -5   2  -2   11.98    0.71
  -5   2  -2   12.67    0.64
   5  -2   2   12.04    0.61
   5  -2   2   11.84    0.53
   5  -2   2   12.18    0.55
  -6   2  -2   53.81    1.54
  -6   2  -2   52.16    1.67
  -6   2  -2   54.96    1.80
  -6   2  -2   54.15    1.52
   6  -2   2   50.75    1.45
   6  -2   2   52.43    1.64
   6  -2   2   53.77    1.49
  -7   2  -2   24.44    1.19
  -7   2  -2   24.37    0.92
  -7   2  -2   24.78    0.90
   7  -2   2   24.39    1.06
  -8   2  -2   18.23    0.79
  -8   2  -2   17.71    0.74
  -8   2  -2   16.89    1.02
   8  -2   2   19.39    0.98
   8  -2   2   16.71    0.71
   9   1  -2    0.29    0.24
  -9  -1   2    0.39    0.23
   8   1  -2   -0.19    0.24
  -8  -1   2   -0.21    0.16
   7   1  -2    0.89    0.26
  -7  -1   2    0.52    0.22
  -7  -1   2    0.76    0.28
   6   1  -2    4.64    0.39
   6   1  -2    3.92    0.39
  -6  -1   2    4.05    0.36
  -6  -1   2    3.75    0.36
  -6  -1   2    3.85    0.36
   5   1  -2    1.72    0.25
   5   1  -2    1.63    0.25
  -5  -1   2    1.33    0.20
  -5  -1   2    1.79    0.24
  -5  -1   2    1.78    0.22
   4   1  -2   13.88    0.56
   4   1  -2   13.06    0.54
  -4  -1   2   12.51    0.67
   3   1  -2  274.87    6.00
   3   1  -2  274.33    5.98
  -3  -1   2  276.66    5.99
  -3  -1   2  274.33    5.96
  -3  -1   2  268.78    5.96
   2   1  -2  776.82   16.53
   1   1  -2  196.35    4.18
   1   1  -2  194.05    4.20
   1   1  -2  200.31    4.15
   1   1  -2  191.82    4.19
  -1  -1   2  197.75    4.20
  -1  -1   2  195.31    4.20
  -1  -1   2  196.90    4.17
  -1  -1   2  196.68    4.15
   0   1  -2  295.72    6.28
   0   1  -2  293.58    6.31
   0   1  -2  298.00    6.32
   0  -1   2  295.59    6.29
   0  -1   2  299.55    6.32
   0  -1   2  294.54    6.31
  -1   1  -2  513.62   10.84
  -1   1  -2  507.94   10.82
  -1   1  -2  517.01   10.83
   1  -1   2  501.82   10.81
   1  -1   2  513.46   10.82
   1  -1   2  509.05   10.85
  -2   1  -2   85.19    1.97
  -2   1  -2   85.77    2.05
  -2   1  -2   84.12    1.97
   2  -1   2   83.26    1.89
   2  -1   2   82.21    1.96
   2  -1   2   87.22    1.97
   2  -1   2   86.64    1.96
  -3   1  -2  287.65    6.20
  -3   1  -2  283.45    6.33
  -3   1  -2  281.15    6.18
   3  -1   2  281.31    6.17
   3  -1   2  291.29    6.19
   3  -1   2  288.21    6.23
   3  -1   2  281.84    6.13
  -4   1  -2  225.31    5.17
  -4   1  -2  224.25    4.97
  -4   1  -2  222.78    4.95
   4  -1   2  219.62    4.94
   4  -1   2  227.18    5.12
   4  -1   2  226.28    4.94
   4  -1   2  225.23    4.96
  -5   1  -2   74.47    2.04
  -5   1  -2   75.78    1.88
  -5   1  -2   73.99    2.10
  -5   1  -2   74.91    1.86
   5  -1   2   74.99    2.00
   5  -1   2   76.55    1.86
   5  -1   2   76.33    1.88
   5  -1   2   71.94    1.83
  -6   1  -2    9.58    0.71
  -6   1  -2   11.38    0.50
  -6   1  -2   11.08    0.69
  -6   1  -2   11.87    0.52
   6  -1   2   11.00    0.47
   6  -1   2   11.53    0.62
  -7   1  -2   73.33    1.92
  -7   1  -2   74.73    2.29
  -7   1  -2   74.37    1.90
   7  -1   2   68.86    1.82
   7  -1   2   73.55    1.85
   7  -1   2   74.28    2.16
  -8   1  -2   26.31    0.91
  -8   1  -2   25.07    0.86
  -8   1  -2   28.78    1.29
   8  -1   2   24.34    1.12
   8  -1   2   24.07    0.78
   9   0  -2    9.94    0.73
  -9   0   2    7.49    0.71
   8   0  -2    7.02    0.61
  -8   0   2    7.36    0.66
   7   0  -2   54.58    1.77
  -7   0   2   57.30    1.81
  -7   0   2   53.26    1.86
  -7   0   2   54.43    1.34
  -7   0   2   56.40    1.36
   6   0  -2   50.00    1.56
  -6   0   2   49.83    1.52
  -6   0   2   49.64    1.49
  -6   0   2   49.44    1.22
  -6   0   2   50.69    1.22
   5   0  -2  106.86    2.66
   5   0  -2  106.91    2.66
  -5   0   2  102.72    2.61
  -5   0   2  103.79    2.35
  -5   0   2  104.85    2.35
  -5   0   2  104.64    2.59
   4   0  -2   73.35    1.61
   4   0  -2   71.84    2.03
   4   0  -2   72.96    1.89
   4   0  -2   72.56    1.61
  -4   0   2   73.98    1.85
  -4   0   2   72.31    1.64
  -4   0   2   69.91    1.67
  -4   0   2   69.77    1.83
   3   0  -2  476.66   10.17
   3   0  -2  478.34    9.99
   3   0  -2  474.62   10.18
  -3   0   2  466.08   10.15
  -3   0   2  465.28   10.05
  -3   0   2  478.28   10.15
  -3   0   2  478.04   10.00
   2   0  -2  555.97   11.77
   2   0  -2  564.85   11.66
   2   0  -2  549.96   11.76
  -2   0   2  552.95   11.67
  -2   0   2  548.70   11.75
   1   0  -2  261.21    5.60
   1   0  -2  267.55    5.61
  -1   0   2  262.76    5.60
  -1   0   2  265.59    5.61
   0   0  -2  401.31    8.82
   0   0   2  403.96    8.82
  -1   0  -2  262.75    5.70
  -1   0  -2  271.95    5.67
  -1   0  -2  262.82    5.72
   1   0   2  266.61    5.73
   1   0   2  265.68    5.70
   1   0   2  273.44    5.70
  -2   0  -2  210.28    4.68
  -2   0  -2  211.19    4.61
  -2   0  -2  214.70    4.63
  -2   0  -2  215.36    4.61
   2   0   2  213.93    4.61
   2   0   2  216.27    4.70
   2   0   2  215.06    4.61
   2   0   2  212.78    4.63
   2   0   2  213.18    4.61
  -3   0  -2  200.54    4.26
  -3   0  -2  193.52    4.32
  -3   0  -2  195.59    4.40
  -3   0  -2  194.30    4.26
   3   0   2  194.24    4.24
   3   0   2  193.35    4.30
   3   0   2  197.40    4.25
   3   0   2  194.10    4.33
  -4   0  -2   54.84    1.37
  -4   0  -2   56.97    1.69
  -4   0  -2   55.89    1.36
   4   0   2   53.99    1.33
   4   0   2   54.67    1.43
   4   0   2   55.55    1.35
   4   0   2   55.50    1.48
  -5   0  -2   38.59    1.02
  -5   0  -2   38.18    1.15
  -5   0  -2   37.61    1.24
  -5   0  -2   36.83    1.20
  -5   0  -2   38.08    1.03
   5   0   2   37.57    1.00
   5   0   2   38.45    1.18
   5   0   2   37.98    1.12
   5   0   2   36.57    0.98
  -6   0  -2    0.84    0.20
  -6   0  -2    0.73    0.21
  -6   0  -2    0.61    0.20
  -6   0  -2    0.51    0.13
  -6   0  -2    0.41    0.12
   6   0   2    0.61    0.12
   6   0   2    0.30    0.14
   6   0   2    0.83    0.21
   6   0   2    0.62    0.12
  -7   0  -2    5.56    0.35
  -7   0  -2    5.69    0.55
  -7   0  -2    5.32    0.34
   7   0   2    5.29    0.31
   7   0   2    4.98    0.27
   7   0   2    5.29    0.48
   7   0   2    5.01    0.42
  -8   0  -2    4.63    0.56
  -8   0  -2    4.62    0.34
  -8   0  -2    4.64    0.33
   8   0   2    5.78    0.63
  -9   0  -2    0.80    0.15
  -9   0  -2    0.71    0.17
  -9   0  -2    0.25    0.24
   9   0   2    0.38    0.27
   9  -1  -2   12.03    0.82
  -9   1   2   10.17    0.83
   8  -1  -2   24.26    1.15
  -8   1   2   24.14    0.80
  -8   1   2   26.18    1.21
  -8   1   2   24.39    0.95
   7  -1  -2   61.13    1.52
   7  -1  -2   61.96    1.51
   7  -1  -2   66.24    2.00
  -7   1   2   62.35    1.87
  -7   1   2   62.88    1.60
  -7   1   2   63.95    1.62
   6  -1  -2   91.12    2.49
   6  -1  -2   90.76    2.11
  -6   1   2   91.19    2.17
  -6   1   2   90.33    2.36
  -6   1   2   90.27    2.17
  -6   1   2   91.82    2.45
   5  -1  -2   52.60    1.54
   5  -1  -2   52.02    1.28
   5  -1  -2   50.81    1.27
  -5   1   2   51.11    1.31
  -5   1   2   50.85    1.44
  -5   1   2   51.63    1.49
  -5   1   2   49.91    1.30
   4  -1  -2   48.21    1.20
   4  -1  -2   47.98    1.19
   4  -1  -2   49.82    1.39
  -4   1   2   47.31    1.21
  -4   1   2   48.33    1.22
  -4   1   2   48.73    1.31
  -4   1   2   47.32    1.33
   3  -1  -2  148.46    3.24
   3  -1  -2  147.92    3.36
   3  -1  -2  149.20    3.37
   3  -1  -2  143.54    3.23
  -3   1   2  145.55    3.24
  -3   1   2  146.73    3.25
  -3   1   2  145.44    3.33
  -3   1   2  146.08    3.30
   2  -1  -2   60.17    1.42
   2  -1  -2   61.62    1.47
   2  -1  -2   61.11    1.42
  -2   1   2   59.27    1.45
  -2   1   2   60.85    1.42
  -2   1   2   61.56    1.43
   1  -1  -2   11.51    0.35
   1  -1  -2   11.59    0.36
   1  -1  -2   11.35    0.36
  -1   1   2   11.21    0.36
  -1   1   2   11.64    0.37
   0  -1  -2  158.97    3.49
   0  -1  -2  163.10    3.48
   0   1   2  160.01    3.49
   0   1   2  162.45    3.50
   0   1   2  163.56    3.48
  -1  -1  -2   24.90    0.64
  -1  -1  -2   24.49    0.63
  -1  -1  -2   24.49    0.63
   1   1   2   24.80    0.63
   1   1   2   24.98    0.63
   1   1   2   24.48    0.64
  -2  -1  -2   14.20    0.47
  -2  -1  -2   14.67    0.42
  -2  -1  -2   14.92    0.42
   2   1   2   14.28    0.42
   2   1   2   14.28    0.47
   2   1   2   14.71    0.42
  -3  -1  -2    0.81    0.11
  -3  -1  -2    0.81    0.13
  -3  -1  -2    0.66    0.12
  -3  -1  -2    1.05    0.12
   3   1   2    0.82    0.11
   3   1   2    0.74    0.10
   3   1   2    0.75    0.12
   3   1   2    0.75    0.12
  -4  -1  -2   57.76    1.36
  -4  -1  -2   56.14    1.56
  -4  -1  -2   57.31    1.53
  -4  -1  -2   58.81    1.60
  -4  -1  -2   56.88    1.36
   4   1   2   58.11    1.50
   4   1   2   55.87    1.33
   4   1   2   58.62    1.52
   4   1   2   54.99    1.33
  -5  -1  -2   63.30    1.78
  -5  -1  -2   65.58    1.54
  -5  -1  -2   66.16    1.76
  -5  -1  -2   66.24    1.79
  -5  -1  -2   64.96    1.55
   5   1   2   63.79    1.79
   5   1   2   66.70    1.77
   5   1   2   64.25    1.50
  -6  -1  -2    6.55    0.31
  -6  -1  -2    5.64    0.42
  -6  -1  -2    5.95    0.46
  -6  -1  -2    5.50    0.31
  -6  -1  -2    6.33    0.46
   6   1   2    5.88    0.24
   6   1   2    6.12    0.35
   6   1   2    5.29    0.40
   6   1   2    5.69    0.42
  -7  -1  -2   81.65    2.35
  -7  -1  -2   87.35    2.06
  -7  -1  -2   89.08    2.46
  -7  -1  -2   86.00    2.04
   7   1   2   89.91    2.36
   7   1   2   89.92    2.43
  -8  -1  -2   51.25    1.33
  -8  -1  -2   51.58    1.34
  -8  -1  -2   55.27    1.81
   8   1   2   53.38    1.66
   8   1   2   55.08    1.81
  -9  -1  -2   28.19    1.29
   8  -2  -2    2.44    0.29
   8  -2  -2    3.16    0.46
  -8   2   2    4.04    0.33
  -8   2   2    3.03    0.45
  -8   2   2    3.14    0.49
  -8   2   2    3.73    0.41
   7  -2  -2    0.13    0.21
   7  -2  -2    0.40    0.13
   7  -2  -2    0.31    0.13
  -7   2   2    0.55    0.16
  -7   2   2    0.03    0.15
  -7   2   2    0.27    0.14
   6  -2  -2    0.81    0.24
   6  -2  -2    0.72    0.15
   6  -2  -2    0.71    0.14
  -6   2   2    0.76    0.18
  -6   2   2    0.65    0.17
  -6   2   2    0.57    0.22
  -6   2   2    0.53    0.15
   5  -2  -2   20.53    0.69
   5  -2  -2   21.40    0.71
   5  -2  -2   22.17    0.89
  -5   2   2   20.89    0.82
  -5   2   2   20.21    0.75
  -5   2   2   21.45    0.74
  -5   2   2   20.36    0.72
   4  -2  -2    1.37    0.22
   4  -2  -2    0.99    0.16
   4  -2  -2    1.20    0.18
  -4   2   2    1.47    0.20
  -4   2   2    0.99    0.17
  -4   2   2    1.33    0.20
  -4   2   2    1.17    0.19
   3  -2  -2   74.78    1.80
   3  -2  -2   75.01    1.85
   3  -2  -2   73.11    1.80
  -3   2   2   73.50    1.84
  -3   2   2   74.97    1.81
  -3   2   2   74.26    1.83
   2  -2  -2  121.30    2.72
   2  -2  -2  118.12    2.71
   2  -2  -2  118.56    2.71
  -2   2   2  116.94    2.69
  -2   2   2  120.53    2.72
  -2   2   2  120.54    2.73
   1  -2  -2  162.62    3.57
   1  -2  -2  160.25    3.57
   1  -2  -2  160.00    3.50
  -1   2   2  161.22    3.57
  -1   2   2  161.46    3.48
  -1   2   2  162.72    3.58
   0  -2  -2  194.15    4.31
   0  -2  -2  200.48    4.31
   0   2   2  196.98    4.28
   0   2   2  199.50    4.32
   0   2   2  198.67    4.31
  -1  -2  -2  106.46    2.39
  -1  -2  -2  108.04    2.39
  -1  -2  -2  108.58    2.36
   1   2   2  106.19    2.39
   1   2   2  107.41    2.36
   1   2   2  104.66    2.38
  -2  -2  -2    3.67    0.19
  -2  -2  -2    3.84    0.20
  -2  -2  -2    4.09    0.21
   2   2   2    3.92    0.21
   2   2   2    3.93    0.19
   2   2   2    3.69    0.19
  -3  -2  -2  159.88    3.47
  -3  -2  -2  156.85    3.55
  -3  -2  -2  160.97    3.47
   3   2   2  158.98    3.47
   3   2   2  159.01    3.60
   3   2   2  160.14    3.46
   3   2   2  159.02    3.56
  -4  -2  -2  213.70    4.56
  -4  -2  -2  209.93    4.55
  -4  -2  -2  206.68    5.03
  -4  -2  -2  214.92    4.77
  -4  -2  -2  210.50    4.70
   4   2   2  207.21    4.72
   4   2   2  211.96    4.75
   4   2   2  209.67    4.53
  -5  -2  -2  300.99    6.79
  -5  -2  -2  308.26    6.96
  -5  -2  -2  305.66    6.51
  -5  -2  -2  301.90    6.79
  -5  -2  -2  302.76    6.53
   5   2   2  310.78    6.47
   5   2   2  298.87    6.46
   5   2   2  304.48    6.78
  -6  -2  -2   46.85    1.40
  -6  -2  -2   44.68    1.40
  -6  -2  -2   43.27    1.40
  -6  -2  -2   44.98    1.11
  -6  -2  -2   46.13    1.11
   6   2   2   45.89    1.40
  -7  -2  -2   62.66    1.93
  -7  -2  -2   65.28    1.53
  -7  -2  -2   67.21    1.54
  -7  -2  -2   63.69    1.90
  -7  -2  -2   65.94    1.92
   7   2   2   68.08    1.92
  -8  -2  -2  110.26    2.99
   8   2   2  110.43    2.94
  -9  -2  -2   32.03    1.34
   9   2   2   31.67    1.28
   7  -3  -2   18.13    0.73
   7  -3  -2   18.65    0.98
  -7   3   2   18.44    0.80
  -7   3   2   18.29    0.77
  -7   3   2   17.83    0.75
   6  -3  -2   48.67    1.61
   6  -3  -2   45.51    1.33
  -6   3   2   44.70    1.35
  -6   3   2   45.70    1.38
  -6   3   2   44.48    1.46
  -6   3   2   47.48    1.41
   5  -3  -2   83.77    2.12
   5  -3  -2   79.60    2.18
   5  -3  -2   85.86    2.34
  -5   3   2   83.37    2.15
  -5   3   2   83.58    2.20
  -5   3   2   81.82    2.10
  -5   3   2   83.59    2.17
   4  -3  -2   85.96    2.21
   4  -3  -2   89.52    2.22
   4  -3  -2   93.15    2.38
  -4   3   2   89.43    2.17
  -4   3   2   91.01    2.27
  -4   3   2   89.55    2.25
  -4   3   2   88.55    2.24
   3  -3  -2  129.02    3.09
   3  -3  -2  136.33    3.11
  -3   3   2  130.99    3.11
  -3   3   2  133.18    3.13
  -3   3   2  133.97    3.07
   2  -3  -2  349.69    7.77
   2  -3  -2  374.20    7.80
  -2   3   2  358.69    7.78
  -2   3   2  351.08    7.68
  -2   3   2  355.40    7.83
   1  -3  -2  166.78    3.74
   1  -3  -2  163.82    3.73
  -1   3   2  166.15    3.73
  -1   3   2  163.06    3.74
  -1   3   2  168.16    3.58
   0  -3  -2  381.95    8.08
   0  -3  -2  371.91    8.06
   0   3   2  374.28    8.06
   0   3   2  369.96    8.07
  -1  -3  -2  350.74    7.67
  -1  -3  -2  358.79    7.68
   1   3   2  359.00    7.68
   1   3   2  357.24    7.61
   1   3   2  358.26    7.67
  -2  -3  -2   95.53    2.22
  -2  -3  -2   96.62    2.15
  -2  -3  -2   95.24    2.22
  -2  -3  -2   97.42    2.17
   2   3   2   95.12    2.21
   2   3   2   98.40    2.22
   2   3   2   96.67    2.19
  -3  -3  -2  177.93    3.87
  -3  -3  -2  175.67    3.86
  -3  -3  -2  173.91    3.89
  -3  -3  -2  175.58    3.86
   3   3   2  176.69    3.85
   3   3   2  176.28    3.98
   3   3   2  175.29    3.89
   3   3   2  173.98    3.85
  -4  -3  -2  145.65    3.22
  -4  -3  -2  146.70    3.21
  -4  -3  -2  146.04    3.29
  -4  -3  -2  141.03    3.34
  -4  -3  -2  143.90    3.40
   4   3   2  142.62    3.31
   4   3   2  146.54    3.20
   4   3   2  141.98    3.19
   4   3   2  152.04    3.74
  -5  -3  -2   41.64    1.29
  -5  -3  -2   43.28    1.06
  -5  -3  -2   43.08    1.17
  -5  -3  -2   42.00    1.26
  -5  -3  -2   44.76    1.22
   5   3   2   42.47    1.27
   5   3   2   42.69    1.03
   5   3   2   42.47    1.02
   5   3   2   43.66    1.31
  -6  -3  -2    1.23    0.21
  -6  -3  -2    1.50    0.25
  -6  -3  -2    1.74    0.15
  -6  -3  -2    1.51    0.23
   6   3   2    1.41    0.24
  -7  -3  -2    8.38    0.57
  -7  -3  -2    8.72    0.54
   7   3   2    8.37    0.57
  -8  -3  -2   -0.13    0.18
   8   3   2    0.24    0.20
  -9  -3  -2    0.00    0.20
   9   3   2    0.38    0.22
 -10  -3  -2    0.51    0.27
  10   3   2   -0.26    0.19
   7  -4  -2   17.88    1.00
   7  -4  -2   16.57    0.77
  -7   4   2   18.50    0.79
  -7   4   2   18.37    0.85
  -7   4   2   16.84    0.73
  -7   4   2   18.05    1.08
   6  -4  -2   23.76    0.91
   6  -4  -2   25.14    1.11
  -6   4   2   22.00    1.31
  -6   4   2   23.03    0.83
  -6   4   2   23.45    0.93
  -6   4   2   23.66    0.98
   5  -4  -2   14.32    0.76
   5  -4  -2   13.56    0.64
  -5   4   2   12.96    0.66
  -5   4   2   12.64    0.63
  -5   4   2   13.32    0.68
  -5   4   2   12.51    0.54
   4  -4  -2   21.19    0.88
   4  -4  -2   20.84    0.81
   4  -4  -2   22.14    0.84
  -4   4   2   21.57    0.84
  -4   4   2   22.85    0.88
  -4   4   2   21.38    0.72
  -4   4   2   22.04    0.79
   3  -4  -2    0.65    0.15
   3  -4  -2    0.43    0.16
  -3   4   2    0.49    0.13
  -3   4   2    0.48    0.16
  -3   4   2    0.51    0.18
   2  -4  -2    9.08    0.46
   2  -4  -2   10.03    0.50
  -2   4   2    8.76    0.37
  -2   4   2    9.61    0.51
  -2   4   2    9.00    0.48
   1  -4  -2    4.57    0.34
   1  -4  -2    4.73    0.32
  -1   4   2    4.85    0.35
  -1   4   2    4.53    0.40
   0  -4  -2    3.46    0.30
   0   4   2    3.59    0.30
  -1  -4  -2    0.08    0.10
  -1  -4  -2    0.11    0.11
   1   4   2   -0.09    0.11
   1   4   2    0.17    0.08
   1   4   2   -0.20    0.13
  -2  -4  -2   11.98    0.47
  -2  -4  -2   11.49    0.34
  -2  -4  -2   12.08    0.47
   2   4   2   12.32    0.41
   2   4   2   10.68    0.46
   2   4   2   11.07    0.61
  -3  -4  -2   95.87    2.28
  -3  -4  -2  100.39    2.30
  -3  -4  -2   99.01    2.22
  -3  -4  -2   94.06    2.23
   3   4   2   95.64    2.27
   3   4   2   99.03    2.38
   3   4   2  100.36    2.26
   3   4   2   94.48    2.50
  -4  -4  -2   65.88    1.61
  -4  -4  -2   67.59    1.60
  -4  -4  -2   64.21    1.66
  -4  -4  -2   64.08    1.60
   4   4   2   63.60    1.58
   4   4   2   68.47    1.63
   4   4   2   67.23    1.78
   4   4   2   65.10    1.63
  -5  -4  -2  105.84    2.60
  -5  -4  -2  105.36    2.44
  -5  -4  -2  103.21    2.67
  -5  -4  -2  109.38    2.51
  -5  -4  -2  115.95    2.69
   5   4   2  106.18    2.54
   5   4   2  113.47    2.45
   5   4   2  107.10    2.70
   5   4   2   90.06    2.37
  -6  -4  -2   30.11    1.06
  -6  -4  -2   28.19    0.81
  -6  -4  -2   27.87    1.00
  -6  -4  -2   29.12    1.06
  -6  -4  -2   29.32    0.79
   6   4   2   27.49    0.94
   6   4   2   27.55    1.05
  -7  -4  -2   37.00    0.92
  -7  -4  -2   37.37    1.18
   7   4   2   35.62    1.30
  -8  -4  -2   68.05    1.94
   8   4   2   67.85    2.09
  -9  -4  -2   30.32    1.17
   9   4   2   30.02    1.28
 -10  -4  -2   27.80    1.19
  10   4   2   29.44    1.28
   6  -5  -2   -0.34    0.14
   6  -5  -2   -0.24    0.21
  -6   5   2    0.11    0.21
  -6   5   2    0.02    0.23
   5  -5  -2    3.64    0.46
   5  -5  -2    3.41    0.40
  -5   5   2    3.10    0.38
  -5   5   2    2.73    0.36
  -5   5   2    3.21    0.44
  -5   5   2    2.66    0.33
   4  -5  -2   16.04    0.75
  -4   5   2   14.13    0.62
  -4   5   2   14.81    0.54
  -4   5   2   15.76    0.78
  -4   5   2   13.41    0.72
   3  -5  -2    0.23    0.14
  -3   5   2    0.06    0.11
  -3   5   2    0.13    0.10
  -3   5   2   -0.07    0.14
  -3   5   2    0.23    0.17
   2  -5  -2    5.00    0.40
   2  -5  -2    4.80    0.41
  -2   5   2    4.85    0.40
  -2   5   2    5.01    0.45
  -2   5   2    5.13    0.26
   1  -5  -2    4.00    0.34
   1  -5  -2    5.38    0.39
  -1   5   2    4.26    0.37
  -1   5   2    4.56    0.38
   0  -5  -2   55.24    1.54
   0  -5  -2   54.38    1.53
   0   5   2   56.64    1.56
   0   5   2   54.58    1.53
  -1  -5  -2   81.81    2.06
  -1  -5  -2   78.75    2.04
   1   5   2   80.35    2.04
   1   5   2   79.68    2.06
   1   5   2   81.17    1.93
  -2  -5  -2   62.82    1.64
  -2  -5  -2   60.64    1.63
   2   5   2   61.96    1.64
   2   5   2   61.38    1.62
   2   5   2   63.88    1.53
  -3  -5  -2   91.64    2.23
  -3  -5  -2   90.27    2.22
  -3  -5  -2   89.64    2.06
   3   5   2   91.33    2.21
   3   5   2   94.25    2.31
   3   5   2   91.13    2.22
   3   5   2   90.64    2.14
  -4  -5  -2   66.24    1.72
  -4  -5  -2   69.05    1.73
  -4  -5  -2   67.63    1.68
  -4  -5  -2   69.05    1.63
   4   5   2   68.45    1.70
   4   5   2   68.84    1.69
   4   5   2   68.68    1.71
   4   5   2   68.37    1.86
  -5  -5  -2  165.18    3.65
  -5  -5  -2  157.87    3.68
  -5  -5  -2  166.32    3.70
  -5  -5  -2  160.14    3.76
   5   5   2  166.42    3.67
   5   5   2  163.39    3.93
   5   5   2  162.09    3.72
   5   5   2  163.09    3.66
  -6  -5  -2   76.85    1.88
  -6  -5  -2   76.57    1.82
  -6  -5  -2   70.54    2.52
  -6  -5  -2   75.28    1.83
  -6  -5  -2   73.39    2.00
   6   5   2   75.81    2.08
   6   5   2   76.51    1.78
   6   5   2   75.06    2.13
  -7  -5  -2   22.62    0.80
  -7  -5  -2   21.79    0.93
  -7  -5  -2   21.04    0.66
  -7  -5  -2   22.16    0.66
   7   5   2   21.52    0.97
  -8  -5  -2   75.49    1.98
   8   5   2   67.35    2.60
  -9  -5  -2   47.55    1.52
   9   5   2   49.07    1.74
 -10  -5  -2   30.32    1.21
  10   5   2   31.74    1.37
   5  -6  -2   16.15    0.84
   5  -6  -2   15.03    0.87
  -5   6   2   17.30    0.89
  -5   6   2   14.22    0.84
  -5   6   2   12.93    0.71
   4  -6  -2   35.55    1.30
  -4   6   2   33.75    1.06
  -4   6   2   36.83    1.36
  -4   6   2   34.80    1.30
   3  -6  -2   22.83    0.96
  -3   6   2   23.00    1.20
  -3   6   2   20.84    0.65
  -3   6   2   22.38    1.04
  -3   6   2   20.37    0.71
   2  -6  -2   47.50    1.50
  -2   6   2   45.15    1.50
  -2   6   2   47.30    1.50
   1  -6  -2   88.29    2.94
   1  -6  -2   98.05    2.51
  -1   6   2   95.97    2.52
  -1   6   2   93.33    2.48
   0  -6  -2  142.48    3.54
   0  -6  -2  150.39    3.57
   0   6   2  145.96    3.55
   0   6   2  146.42    3.57
  -1  -6  -2   60.35    1.72
  -1  -6  -2   62.72    1.75
   1   6   2   61.00    1.72
   1   6   2   62.37    1.74
   1   6   2   62.20    1.58
  -2  -6  -2   90.45    2.29
  -2  -6  -2   87.47    2.27
   2   6   2   89.04    2.27
   2   6   2   89.67    2.13
   2   6   2   88.53    2.29
  -3  -6  -2    3.32    0.48
  -3  -6  -2    2.94    0.32
   3   6   2    3.07    0.32
   3   6   2    3.24    0.32
   3   6   2    3.16    0.25
   3   6   2    2.81    0.29
  -4  -6  -2    4.81    0.26
  -4  -6  -2    5.15    0.36
  -4  -6  -2    4.99    0.36
   4   6   2    5.09    0.40
   4   6   2    5.27    0.31
   4   6   2    5.04    0.34
   4   6   2    4.70    0.36
  -5  -6  -2   18.44    0.58
  -5  -6  -2   18.37    0.68
  -5  -6  -2   17.71    0.67
  -5  -6  -2   17.83    0.74
   5   6   2   18.82    0.82
   5   6   2   17.74    0.65
   5   6   2   18.62    0.66
   5   6   2   17.76    0.63
  -6  -6  -2   33.87    1.10
  -6  -6  -2   33.10    1.24
  -6  -6  -2   36.09    0.98
  -6  -6  -2   34.57    1.04
  -6  -6  -2   35.73    1.05
   6   6   2   35.55    1.00
   6   6   2   34.73    1.05
   6   6   2   35.50    1.27
   6   6   2   35.35    1.00
  -7  -6  -2    0.11    0.09
  -7  -6  -2    0.24    0.11
  -7  -6  -2    0.23    0.16
  -7  -6  -2    0.20    0.12
   7   6   2    0.12    0.09
   7   6   2    0.15    0.18
   7   6   2    0.07    0.09
  -8  -6  -2    3.59    0.34
  -8  -6  -2    3.21    0.26
  -8  -6  -2    3.42    0.25
   8   6   2    3.93    0.48
  -9  -6  -2    0.48    0.18
   9   6   2    0.78    0.27
   4  -7  -2    1.13    0.33
  -4   7   2    0.90    0.31
   3  -7  -2    6.36    0.58
  -3   7   2    6.91    0.62
   2  -7  -2    5.86    0.56
  -2   7   2    7.04    0.60
   1  -7  -2    8.30    0.62
  -1   7   2    8.74    0.65
  -1   7   2    7.75    0.59
   0  -7  -2    3.49    0.42
   0  -7  -2    3.59    0.45
   0   7   2    2.90    0.37
   0   7   2    4.23    0.35
   0   7   2    3.81    0.48
  -1  -7  -2    1.89    0.30
  -1  -7  -2    1.92    0.32
   1   7   2    2.11    0.33
   1   7   2    2.73    0.27
   1   7   2    2.27    0.28
   1   7   2    2.27    0.32
  -2  -7  -2    0.76    0.23
  -2  -7  -2    0.79    0.21
   2   7   2    0.74    0.24
   2   7   2    0.98    0.19
   2   7   2    1.01    0.16
  -3  -7  -2   17.16    0.75
  -3  -7  -2   17.09    0.77
   3   7   2   17.46    0.65
   3   7   2   17.73    0.77
   3   7   2   17.45    0.74
   3   7   2   17.00    0.74
  -4  -7  -2    5.23    0.40
  -4  -7  -2    5.26    0.43
   4   7   2    5.22    0.33
   4   7   2    5.36    0.40
   4   7   2    5.61    0.42
   4   7   2    5.04    0.45
  -5  -7  -2   24.83    0.90
  -5  -7  -2   25.02    0.92
   5   7   2   24.22    0.86
   5   7   2   24.70    1.01
   5   7   2   25.80    0.80
   5   7   2   25.33    0.90
  -6  -7  -2   27.78    0.94
  -6  -7  -2   31.12    1.02
  -6  -7  -2   31.73    0.86
  -6  -7  -2   29.27    0.98
   6   7   2   30.27    0.96
   6   7   2   29.68    0.91
   6   7   2   29.74    1.18
   6   7   2   29.44    0.95
  -7  -7  -2   19.89    0.73
  -7  -7  -2   20.69    0.76
  -7  -7  -2   21.03    0.67
  -7  -7  -2   20.73    0.82
   7   7   2   18.45    0.91
  -8  -7  -2   45.05    1.22
  -8  -7  -2   41.49    1.20
  -8  -7  -2   43.09    1.51
  -8  -7  -2   45.41    1.22
   8   7   2   43.73    1.63
  -9  -7  -2   27.93    0.92
   9   7   2   27.67    1.27
   2  -8  -2    4.83    0.57
  -2   8   2    5.20    0.59
   1  -8  -2    4.30    0.73
  -1   8   2    4.65    0.56
   0  -8  -2   32.20    1.29
   0   8   2   33.58    1.28
   0   8   2   30.99    1.07
   0   8   2   31.68    0.95
  -1  -8  -2   19.41    1.15
  -1  -8  -2   19.32    0.92
   1   8   2   18.45    0.91
   1   8   2   17.69    0.70
   1   8   2   18.18    0.72
  -2  -8  -2   18.37    0.88
  -2  -8  -2   20.37    0.91
   2   8   2   18.78    0.90
   2   8   2   18.67    0.70
   2   8   2   19.49    0.76
  -3  -8  -2   16.43    0.79
  -3  -8  -2   16.68    0.80
   3   8   2   15.69    0.71
   3   8   2   13.86    0.60
   3   8   2   17.34    0.81
  -4  -8  -2   28.21    1.06
  -4  -8  -2   28.36    1.08
   4   8   2   29.77    1.08
   4   8   2   30.68    1.11
   4   8   2   27.51    0.98
  -5  -8  -2   29.71    1.08
  -5  -8  -2   32.06    1.13
   5   8   2   31.58    1.20
   5   8   2   29.91    0.92
   5   8   2   32.96    1.12
  -6  -8  -2   88.07    2.71
  -6  -8  -2   94.28    2.43
   6   8   2   90.39    2.21
   6   8   2   94.60    2.38
   6   8   2   93.34    2.63
  -7  -8  -2   22.06    0.85
  -7  -8  -2   25.45    1.11
   7   8   2   23.24    1.10
   7   8   2   23.27    0.83
  -8  -8  -2    6.02    0.32
  -8  -8  -2    5.39    0.50
  -8  -8  -2    4.78    0.45
  -8  -8  -2    5.84    0.39
   8   8   2    6.32    0.62
   8   8   2    5.47    0.35
   1  -9  -2   12.45    0.86
  -1   9   2   13.02    0.86
   0  -9  -2    2.46    0.40
   0   9   2    2.00    0.36
  -1  -9  -2    7.93    0.66
   1   9   2    7.79    0.45
   1   9   2    7.48    0.44
   1   9   2    7.35    0.67
  -2  -9  -2   11.85    0.76
   2   9   2   12.23    0.60
   2   9   2   10.13    0.54
   2   9   2   11.75    0.76
  -3  -9  -2    1.85    0.34
  -3  -9  -2    1.92    0.34
   3   9   2    2.52    0.35
   3   9   2    2.05    0.32
  -4  -9  -2    3.90    0.58
  -4  -9  -2    4.95    0.52
   4   9   2    5.97    0.49
   4   9   2    4.54    0.36
   4   9   2    5.03    0.49
  -5  -9  -2    2.50    0.37
  -5  -9  -2    2.39    0.32
   5   9   2    1.58    0.26
   5   9   2    2.23    0.32
   5   9   2    2.42    0.38
  -6  -9  -2    3.89    0.47
  -6  -9  -2    4.46    0.46
   6   9   2    4.32    0.51
   6   9   2    3.60    0.53
  -7  -9  -2    2.12    0.32
  -7  -9  -2    1.30    0.28
   7   9   2    1.30    0.25
   7   9   2    1.31    0.33
  -2 -10  -2   -0.49    0.21
   2  10   2   -0.42    0.23
   2  10   2    0.23    0.17
  -3 -10  -2    0.27    0.26
   3  10   2   -0.03    0.19
   3  10   2   -0.30    0.37
  -4 -10  -2    4.71    0.54
   4  10   2    5.63    0.59
   4  10   2    6.12    0.51
  -5 -10  -2    2.61    0.40
  -5 -10  -2    3.74    0.51
   5  10   2    2.64    0.39
   5  10   2    3.25    0.47
   7   9  -3    4.74    0.42
  -7  -9   3    5.79    0.43
  -7  -9   3    5.81    0.49
   6   9  -3    0.79    0.24
   6   9  -3    0.74    0.21
  -6  -9   3    0.26    0.21
   5   9  -3   -0.09    0.19
   5   9  -3    0.27    0.15
  -5  -9   3    0.17    0.20
  -5  -9   3    0.02    0.21
   4   9  -3    1.30    0.18
   4   9  -3    1.47    0.28
  -4  -9   3    1.51    0.30
  -4  -9   3    1.86    0.52
   3   9  -3    0.19    0.22
  -3  -9   3   -0.38    0.22
  -3  -9   3   -0.02    0.19
   2   9  -3    0.26    0.24
   2   9  -3   -0.09    0.12
  -2  -9   3    0.03    0.20
   1   9  -3    0.02    0.21
   1   9  -3    0.11    0.16
  -1  -9   3   -0.24    0.17
   0   9  -3    1.49    0.31
   0   9  -3    1.99    0.37
  -8  -8   3    5.45    0.41
  -8  -8   3    6.64    0.38
   7   8  -3    9.00    0.61
  -7  -8   3    9.36    0.50
  -7  -8   3    9.65    0.82
   6   8  -3    6.80    0.48
   6   8  -3    6.23    0.42
  -6  -8   3    6.49    0.45
  -6  -8   3    6.41    0.71
   5   8  -3   32.09    1.09
   5   8  -3   29.40    1.01
  -5  -8   3   30.58    1.09
  -5  -8   3   30.39    1.11
  -5  -8   3   32.84    1.45
   4   8  -3   23.11    0.94
   4   8  -3   23.03    0.84
  -4  -8   3   22.20    0.92
  -4  -8   3   24.00    1.26
   3   8  -3    5.84    0.33
   3   8  -3    5.82    0.47
  -3  -8   3    5.44    0.49
   2   8  -3   12.89    0.46
   2   8  -3   14.10    0.77
   2   8  -3   13.31    0.51
  -2  -8   3   13.89    0.76
  -2  -8   3   15.64    0.88
   1   8  -3   15.39    0.65
   1   8  -3   14.10    0.82
  -1  -8   3   16.05    0.83
   0   8  -3   22.82    1.45
   0   8  -3   23.97    0.94
   0  -8   3   23.60    1.07
  -1   8  -3   21.89    1.07
  -1   8  -3   21.49    0.73
  -1   8  -3   21.93    0.99
   1  -8   3   22.68    1.08
  -2   8  -3    5.93    0.41
  -2   8  -3    7.14    0.68
  -2   8  -3    6.07    0.63
   2  -8   3    6.84    0.65
   8   7  -3   49.69    1.72
  -8  -7   3   45.29    1.21
   7   7  -3   46.83    1.51
   7   7  -3   43.60    1.15
   7   7  -3   43.50    1.14
  -7  -7   3   44.06    1.25
  -7  -7   3   46.73    1.28
   6   7  -3   31.47    0.98
   6   7  -3   34.68    1.22
   6   7  -3   32.11    1.06
   6   7  -3   32.86    1.15
  -6  -7   3   35.44    1.08
  -6  -7   3   32.21    1.17
  -6  -7   3   31.09    1.01
   5   7  -3   41.58    1.33
   5   7  -3   41.81    1.24
   5   7  -3   39.98    1.21
   5   7  -3   42.77    1.28
  -5  -7   3   39.01    1.24
  -5  -7   3   41.02    1.32
  -5  -7   3   43.72    1.30
   4   7  -3   43.53    1.33
   4   7  -3   45.98    1.56
   4   7  -3   43.40    1.32
   4   7  -3   40.98    1.29
  -4  -7   3   42.63    1.34
  -4  -7   3   44.82    1.36
   3   7  -3   25.37    0.80
   3   7  -3   26.50    0.97
   3   7  -3   23.70    0.92
  -3  -7   3   26.16    0.97
  -3  -7   3   26.72    0.99
   2   7  -3   26.50    0.76
   2   7  -3   27.84    1.04
   2   7  -3   27.36    0.73
   2   7  -3   27.88    0.80
  -2  -7   3   28.22    1.05
  -2  -7   3   25.99    1.02
   1   7  -3   31.06    1.17
   1   7  -3   32.53    0.99
  -1  -7   3   30.85    1.18
  -1  -7   3   31.44    1.17
   0   7  -3    7.35    0.49
   0   7  -3    7.60    0.59
   0  -7   3    7.10    0.57
   0  -7   3    7.48    0.59
  -1   7  -3    1.65    0.29
  -1   7  -3    1.67    0.32
   1  -7   3    2.00    0.34
  -2   7  -3    0.97    0.21
  -2   7  -3    1.10    0.27
  -2   7  -3    1.21    0.31
   2  -7   3    1.46    0.32
  -3   7  -3    1.86    0.36
  -3   7  -3    1.50    0.26
  -3   7  -3    1.47    0.36
   3  -7   3    1.50    0.48
   3  -7   3    1.82    0.30
   8   6  -3    6.66    0.59
   7   6  -3    0.75    0.22
  -7  -6   3    1.32    0.29
  -7  -6   3    0.98    0.13
  -7  -6   3    0.90    0.14
   6   6  -3   15.35    0.53
   6   6  -3   17.54    0.79
   6   6  -3   15.64    0.74
  -6  -6   3   15.74    0.59
  -6  -6   3   16.00    0.79
  -6  -6   3   16.36    0.75
  -6  -6   3   17.04    0.61
   5   6  -3    6.68    0.47
   5   6  -3    5.68    0.35
   5   6  -3    5.28    0.34
   5   6  -3    6.30    0.43
  -5  -6   3    5.83    0.44
  -5  -6   3    5.78    0.39
  -5  -6   3    6.28    0.43
  -5  -6   3    5.95    0.37
   4   6  -3   -0.02    0.20
   4   6  -3    0.29    0.14
   4   6  -3    0.04    0.11
   4   6  -3    0.01    0.12
  -4  -6   3   -0.02    0.12
  -4  -6   3    0.28    0.14
  -4  -6   3    0.26    0.14
   3   6  -3    5.50    0.33
   3   6  -3    5.69    0.41
   3   6  -3    4.62    0.36
  -3  -6   3    4.99    0.46
  -3  -6   3    4.88    0.40
   2   6  -3    2.21    0.21
   2   6  -3    1.95    0.29
   2   6  -3    2.17    0.33
  -2  -6   3    1.85    0.27
  -2  -6   3    1.89    0.29
   1   6  -3    6.41    0.37
   1   6  -3    6.95    0.49
   1   6  -3    6.20    0.44
  -1  -6   3    6.92    0.47
  -1  -6   3    7.42    0.50
   0   6  -3   11.58    0.65
   0   6  -3   12.79    0.69
   0   6  -3   12.64    0.66
   0  -6   3   11.57    0.63
   0  -6   3   12.20    0.65
  -1   6  -3   22.25    0.96
  -1   6  -3   21.69    0.89
  -1   6  -3   22.39    0.95
   1  -6   3   20.65    0.90
   1  -6   3   21.39    0.92
  -2   6  -3   14.02    0.78
  -2   6  -3   14.30    0.76
  -2   6  -3   14.27    0.76
   2  -6   3   14.14    0.76
  -3   6  -3   20.46    0.99
  -3   6  -3   20.51    0.82
  -3   6  -3   22.00    1.00
  -3   6  -3   19.79    0.94
   3  -6   3   20.70    0.96
   3  -6   3   21.33    0.83
  -4   6  -3   15.46    0.94
  -4   6  -3   16.15    0.90
  -4   6  -3   14.74    1.00
   4  -6   3   14.87    0.74
   4  -6   3   16.47    0.87
  -5   6  -3   14.42    0.94
  -5   6  -3   14.83    0.86
   5  -6   3   15.29    0.83
   5  -6   3   13.81    0.83
  -9  -5   3    2.16    0.31
   8   5  -3   26.26    1.13
  -8  -5   3   25.52    0.82
   7   5  -3   37.42    1.33
  -7  -5   3   37.95    1.31
  -7  -5   3   37.49    0.98
   6   5  -3   15.54    0.73
   6   5  -3   15.45    0.74
  -6  -5   3   15.59    0.71
  -6  -5   3   15.34    0.52
  -6  -5   3   14.08    0.85
  -6  -5   3   15.34    0.50
   5   5  -3   29.02    0.98
   5   5  -3   27.29    0.78
   5   5  -3   26.48    0.78
   5   5  -3   28.51    1.00
  -5  -5   3   26.81    0.81
  -5  -5   3   27.36    1.00
  -5  -5   3   28.24    0.96
  -5  -5   3   28.39    0.83
   4   5  -3  167.34    3.81
   4   5  -3  170.20    3.93
   4   5  -3  162.80    3.78
  -4  -5   3  168.70    3.96
  -4  -5   3  173.92    3.84
  -4  -5   3  167.14    3.83
  -4  -5   3  169.34    3.90
   3   5  -3  118.47    2.70
   3   5  -3  115.30    2.73
   3   5  -3  112.84    2.71
   3   5  -3  113.52    2.73
  -3  -5   3  114.31    2.74
  -3  -5   3  116.97    2.82
  -3  -5   3  113.85    2.74
   2   5  -3   66.98    1.72
   2   5  -3   63.56    1.69
  -2  -5   3   64.27    1.70
  -2  -5   3   63.28    1.60
  -2  -5   3   63.65    1.70
   1   5  -3  111.13    2.72
   1   5  -3  112.24    2.55
  -1  -5   3  108.64    2.71
  -1  -5   3  111.29    2.72
   0   5  -3  128.03    3.11
   0   5  -3  126.84    3.09
   0   5  -3  128.99    3.00
   0  -5   3  125.92    3.09
   0  -5   3  125.28    3.09
  -1   5  -3   56.66    1.64
  -1   5  -3   58.05    1.60
  -1   5  -3   55.01    1.61
   1  -5   3   53.27    1.60
  -2   5  -3   60.24    1.77
  -2   5  -3   59.13    1.74
  -2   5  -3   60.01    1.77
   2  -5   3   55.44    1.89
   2  -5   3   63.38    1.77
  -3   5  -3   15.56    0.77
  -3   5  -3   16.10    0.82
  -3   5  -3   14.35    0.73
   3  -5   3   15.91    0.76
   3  -5   3   15.46    0.65
  -4   5  -3    8.08    0.58
  -4   5  -3    8.91    0.68
  -4   5  -3    8.72    0.72
  -4   5  -3    7.93    0.53
   4  -5   3    8.15    0.57
   4  -5   3    8.35    0.52
  -5   5  -3   16.87    0.84
  -5   5  -3   16.45    0.98
  -5   5  -3   16.08    0.86
   5  -5   3   15.66    0.81
   5  -5   3   14.84    0.78
  -6   5  -3    9.64    0.83
  -6   5  -3   10.24    0.71
  -6   5  -3   10.71    0.72
   6  -5   3    9.96    0.67
   6  -5   3    9.10    0.68
  -9  -4   3   30.32    1.10
   8   4  -3   42.27    1.52
  -8  -4   3   41.17    1.27
   7   4  -3   58.75    1.80
  -7  -4   3   56.21    1.74
  -7  -4   3   56.86    1.70
  -7  -4   3   59.78    1.55
   6   4  -3   64.41    1.84
  -6  -4   3   63.03    1.86
  -6  -4   3   64.60    1.57
  -6  -4   3   63.46    1.81
   5   4  -3   98.39    2.18
   5   4  -3   96.70    2.16
   5   4  -3   98.87    2.49
   5   4  -3   99.63    2.51
  -5  -4   3   95.38    2.26
  -5  -4   3  100.12    2.24
  -5  -4   3   96.84    2.45
  -5  -4   3   96.45    2.52
   4   4  -3  102.44    2.40
   4   4  -3  106.31    2.58
   4   4  -3  111.04    2.44
   4   4  -3  105.96    2.81
  -4  -4   3  102.99    2.42
  -4  -4   3  101.30    2.59
  -4  -4   3  107.72    2.53
  -4  -4   3  103.59    2.59
   3   4  -3  112.30    2.61
   3   4  -3  115.08    2.65
   3   4  -3  111.16    2.60
  -3  -4   3  110.55    2.62
  -3  -4   3  113.99    2.63
  -3  -4   3  118.29    2.93
  -3  -4   3  108.79    2.71
   2   4  -3   72.47    1.81
   2   4  -3   72.07    1.80
  -2  -4   3   72.69    1.78
  -2  -4   3   75.75    2.15
  -2  -4   3   73.26    1.82
   1   4  -3    8.53    0.42
   1   4  -3    7.60    0.40
   1   4  -3    8.17    0.32
  -1  -4   3    8.04    0.40
  -1  -4   3    8.72    0.44
  -1  -4   3    8.31    0.32
   0   4  -3    9.63    0.42
   0   4  -3   10.03    0.49
   0  -4   3    9.09    0.46
   0  -4   3    9.95    0.48
  -1   4  -3    0.53    0.16
  -1   4  -3    0.56    0.15
  -1   4  -3    0.85    0.17
   1  -4   3    0.66    0.16
   1  -4   3    0.76    0.18
  -2   4  -3   11.03    0.59
  -2   4  -3   12.00    0.59
  -2   4  -3   11.29    0.57
   2  -4   3   11.51    0.56
   2  -4   3   12.09    0.47
   2  -4   3   12.20    0.59
  -3   4  -3    6.79    0.46
  -3   4  -3    6.99    0.51
  -3   4  -3    6.39    0.48
   3  -4   3    7.30    0.48
   3  -4   3    6.36    0.44
   3  -4   3    6.86    0.40
  -4   4  -3    0.24    0.20
  -4   4  -3    0.20    0.16
  -4   4  -3    0.15    0.17
   4  -4   3   -0.01    0.18
   4  -4   3    0.32    0.15
   4  -4   3   -0.02    0.14
  -5   4  -3    0.58    0.34
  -5   4  -3    1.00    0.26
  -5   4  -3    1.05    0.30
  -5   4  -3    1.15    0.25
   5  -4   3    0.61    0.21
   5  -4   3    0.71    0.21
  -6   4  -3    0.31    0.21
  -6   4  -3    0.78    0.27
  -6   4  -3    0.33    0.25
   6  -4   3    0.17    0.18
   6  -4   3    0.77    0.24
  -9  -3   3   25.03    1.05
   8   3  -3   13.96    0.78
   8   3  -3   13.30    0.82
  -8  -3   3   12.93    0.67
   7   3  -3   22.22    0.94
   7   3  -3   20.77    0.95
  -7  -3   3   21.90    0.82
  -7  -3   3   20.83    0.89
  -7  -3   3   18.71    0.96
  -7  -3   3   21.45    0.89
   6   3  -3   37.67    1.23
   6   3  -3   35.99    1.24
  -6  -3   3   36.96    1.19
  -6  -3   3   36.14    1.24
  -6  -3   3   36.71    1.20
  -6  -3   3   37.36    1.09
   5   3  -3   62.50    1.74
  -5  -3   3   62.21    1.70
  -5  -3   3   62.88    1.76
  -5  -3   3   63.84    1.56
  -5  -3   3   63.37    1.68
   4   3  -3    4.26    0.19
   4   3  -3    4.77    0.24
   4   3  -3    4.87    0.40
  -4  -3   3    4.49    0.33
  -4  -3   3    4.61    0.33
  -4  -3   3    4.73    0.31
  -4  -3   3    4.11    0.21
  -4  -3   3    4.53    0.22
   3   3  -3    7.85    0.32
   3   3  -3    7.94    0.31
   3   3  -3    8.82    0.39
  -3  -3   3    7.34    0.32
  -3  -3   3    8.11    0.36
  -3  -3   3    8.12    0.40
  -3  -3   3    8.00    0.33
   2   3  -3    4.45    0.26
   2   3  -3    4.25    0.25
  -2  -3   3    4.66    0.27
  -2  -3   3    4.44    0.23
  -2  -3   3    4.52    0.26
  -2  -3   3    4.51    0.26
   1   3  -3    0.23    0.09
   1   3  -3    0.44    0.07
   1   3  -3    0.46    0.10
  -1  -3   3    0.37    0.09
  -1  -3   3    0.38    0.08
  -1  -3   3    0.32    0.10
   0   3  -3  153.16    3.49
   0   3  -3  152.37    3.48
   0   3  -3  152.49    3.41
   0  -3   3  152.06    3.49
   0  -3   3  151.85    3.29
   0  -3   3  155.48    3.49
  -1   3  -3   87.57    2.13
  -1   3  -3   85.19    2.11
   1  -3   3   86.99    2.13
   1  -3   3   84.72    2.16
  -2   3  -3   45.41    1.32
  -2   3  -3   43.92    1.27
  -2   3  -3   47.01    1.63
   2  -3   3   43.24    1.26
   2  -3   3   44.05    1.15
   2  -3   3   41.78    1.24
  -3   3  -3   60.32    1.67
  -3   3  -3   58.73    1.64
  -3   3  -3   59.96    1.73
   3  -3   3   60.00    1.63
   3  -3   3   59.13    1.55
   3  -3   3   58.92    1.61
  -4   3  -3   66.87    1.97
  -4   3  -3   67.02    1.82
  -4   3  -3   66.02    1.84
   4  -3   3   66.65    1.79
   4  -3   3   63.48    1.78
   4  -3   3   67.85    1.82
  -5   3  -3   64.11    1.99
  -5   3  -3   60.82    2.06
  -5   3  -3   63.44    1.80
  -5   3  -3   62.66    1.77
   5  -3   3   54.69    1.69
   5  -3   3   63.73    1.79
   5  -3   3   64.53    1.77
  -6   3  -3   66.82    2.20
  -6   3  -3   63.56    1.85
  -6   3  -3   64.97    2.14
   6  -3   3   66.01    1.95
   6  -3   3   65.24    1.86
  -7   3  -3   41.16    1.66
  -7   3  -3   41.34    1.40
  -7   3  -3   40.03    1.34
   7  -3   3   39.58    1.46
   9   2  -3    8.01    0.68
  -9  -2   3    8.42    0.66
   8   2  -3   15.44    0.91
  -8  -2   3   14.80    0.78
   7   2  -3   58.76    1.81
   7   2  -3   59.14    1.84
  -7  -2   3   57.93    1.74
  -7  -2   3   55.52    1.77
  -7  -2   3   60.30    1.73
   6   2  -3   40.25    1.31
   6   2  -3   39.45    1.32
  -6  -2   3   39.02    1.25
  -6  -2   3   39.37    1.26
  -6  -2   3   42.08    1.33
   5   2  -3   74.00    1.94
   5   2  -3   74.90    1.98
  -5  -2   3   72.78    1.90
  -5  -2   3   73.33    1.91
  -5  -2   3   69.40    1.94
   4   2  -3  228.59    5.23
   4   2  -3  221.90    5.01
  -4  -2   3  221.72    5.05
  -4  -2   3  226.88    4.99
  -4  -2   3  221.63    4.77
  -4  -2   3  220.72    5.04
  -4  -2   3  223.66    4.77
   3   2  -3  558.39   12.02
   3   2  -3  566.74   12.06
   3   2  -3  555.85   11.88
  -3  -2   3  565.55   12.01
  -3  -2   3  566.97   11.91
  -3  -2   3  569.03   12.08
  -3  -2   3  563.96   11.90
   2   2  -3  394.06    8.43
   2   2  -3  389.20    8.42
  -2  -2   3  400.81    8.51
  -2  -2   3  397.39    8.34
  -2  -2   3  399.54    8.44
  -2  -2   3  392.92    8.43
  -2  -2   3  399.10    8.44
   1   2  -3   69.56    1.66
   1   2  -3   68.33    1.65
   1   2  -3   70.39    1.56
  -1  -2   3   69.81    1.66
  -1  -2   3   71.63    1.55
  -1  -2   3   71.10    1.66
  -1  -2   3   70.33    1.57
   0   2  -3  189.83    4.17
   0   2  -3  186.43    4.11
   0   2  -3  189.36    4.18
   0  -2   3  191.87    4.13
   0  -2   3  187.05    4.17
  -1   2  -3   82.99    1.98
  -1   2  -3   82.08    1.99
  -1   2  -3   82.27    1.98
   1  -2   3   80.96    1.97
   1  -2   3   83.60    1.84
   1  -2   3   83.75    1.99
  -2   2  -3  338.01    7.42
  -2   2  -3  345.11    7.49
  -2   2  -3  343.36    7.44
   2  -2   3  334.19    7.73
   2  -2   3  339.30    7.32
   2  -2   3  347.56    7.43
  -3   2  -3   49.98    1.38
  -3   2  -3   49.50    1.46
  -3   2  -3   50.45    1.36
   3  -2   3   52.06    1.38
   3  -2   3   49.35    1.19
   3  -2   3   50.43    1.32
   3  -2   3   49.21    1.35
  -4   2  -3  101.31    2.50
  -4   2  -3  105.05    2.54
  -4   2  -3  103.94    2.69
   4  -2   3  100.11    2.51
   4  -2   3  101.01    2.34
   4  -2   3  105.57    2.52
   4  -2   3   99.69    2.48
  -5   2  -3   72.71    1.94
  -5   2  -3   71.15    1.91
  -5   2  -3   72.37    2.04
  -5   2  -3   74.55    2.16
   5  -2   3   75.06    1.93
   5  -2   3   74.17    1.99
   5  -2   3   70.43    1.88
  -6   2  -3   19.54    0.80
  -6   2  -3   19.62    0.78
  -6   2  -3   20.55    1.00
   6  -2   3   19.86    0.77
   6  -2   3   18.90    0.84
   6  -2   3   17.54    0.72
  -7   2  -3   13.97    0.90
  -7   2  -3   15.56    0.94
  -7   2  -3   13.35    0.65
   7  -2   3   12.93    0.76
   7  -2   3   13.50    0.62
  -8   2  -3    1.17    0.22
  -8   2  -3    0.79    0.29
  -8   2  -3    0.68    0.23
   8  -2   3    0.64    0.28
   8  -2   3    0.40    0.16
   9   1  -3   38.09    1.54
  -9  -1   3   39.52    1.53
   8   1  -3   28.71    1.28
  -8  -1   3   29.79    1.20
   7   1  -3   58.94    1.84
   7   1  -3   61.92    1.89
  -7  -1   3   58.63    1.80
   6   1  -3  135.88    3.40
   6   1  -3  135.05    3.38
  -6  -1   3  134.69    3.32
  -6  -1   3  135.73    3.36
   5   1  -3  123.46    3.00
   5   1  -3  124.44    2.99
  -5  -1   3  119.52    2.93
  -5  -1   3  119.33    2.96
  -5  -1   3  118.08    2.90
   4   1  -3   54.36    1.45
   4   1  -3   55.89    1.77
  -4  -1   3   52.01    1.41
  -4  -1   3   53.22    1.21
  -4  -1   3   51.79    1.46
  -4  -1   3   52.66    1.45
  -4  -1   3   53.15    1.22
   3   1  -3  503.69   10.86
   3   1  -3  500.66   10.66
   3   1  -3  504.07   10.83
  -3  -1   3  520.29   10.83
  -3  -1   3  516.04   10.73
  -3  -1   3  503.72   10.86
  -3  -1   3  490.18   10.79
  -3  -1   3  510.30   10.68
   2   1  -3    9.79    0.37
   2   1  -3    9.14    0.34
   2   1  -3    9.53    0.31
   2   1  -3    9.27    0.31
  -2  -1   3    9.08    0.30
  -2  -1   3    9.51    0.33
  -2  -1   3    9.58    0.32
  -2  -1   3    9.57    0.32
   1   1  -3    4.09    0.16
   1   1  -3    4.00    0.17
   1   1  -3    4.06    0.20
   1   1  -3    3.99    0.20
  -1  -1   3    3.87    0.20
  -1  -1   3    3.99    0.20
  -1  -1   3    4.21    0.18
   0   1  -3    2.49    0.17
   0   1  -3    2.84    0.19
   0   1  -3    2.55    0.19
   0  -1   3    3.02    0.19
   0  -1   3    3.12    0.20
   0  -1   3    2.68    0.17
  -1   1  -3   54.15    1.35
  -1   1  -3   54.65    1.35
  -1   1  -3   54.75    1.34
   1  -1   3   54.67    1.34
   1  -1   3   54.86    1.36
   1  -1   3   55.29    1.23
   1  -1   3   55.50    1.35
  -2   1  -3   90.58    2.21
  -2   1  -3   92.81    2.15
  -2   1  -3   89.29    2.15
  -2   1  -3   94.04    2.08
   2  -1   3   95.74    2.17
   2  -1   3   91.55    2.22
   2  -1   3   89.78    2.14
   2  -1   3   90.70    2.09
  -3   1  -3   46.36    1.34
  -3   1  -3   46.01    1.24
  -3   1  -3   47.24    1.25
  -3   1  -3   47.91    1.22
   3  -1   3   47.09    1.18
   3  -1   3   49.09    1.26
   3  -1   3   47.42    1.24
  -4   1  -3   10.23    0.45
  -4   1  -3   10.51    0.46
  -4   1  -3   10.36    0.56
   4  -1   3   10.24    0.48
   4  -1   3    9.67    0.44
   4  -1   3    9.92    0.43
   4  -1   3   10.34    0.42
  -5   1  -3   30.13    0.94
  -5   1  -3   28.93    1.10
  -5   1  -3   28.68    0.91
   5  -1   3   28.92    0.90
   5  -1   3   28.07    0.88
   5  -1   3   29.70    1.00
  -6   1  -3    9.26    0.64
  -6   1  -3    8.90    0.47
  -6   1  -3    8.71    0.56
  -6   1  -3    8.57    0.48
   6  -1   3    9.35    0.45
   6  -1   3    8.36    0.54
   6  -1   3    9.16    0.47
   6  -1   3    9.34    0.45
  -7   1  -3    6.64    0.42
  -7   1  -3    7.71    0.81
  -7   1  -3    7.79    0.47
   7  -1   3    7.49    0.41
   7  -1   3    6.68    0.39
   7  -1   3    7.38    0.55
  -8   1  -3    8.76    0.49
  -8   1  -3    9.65    0.76
   8  -1   3    9.57    0.68
   8  -1   3    8.67    0.46
   9   0  -3   10.93    0.79
  -9   0   3   10.42    0.81
   8   0  -3   17.27    0.92
  -8   0   3   16.99    1.00
   7   0  -3   11.56    0.71
  -7   0   3   11.39    0.42
  -7   0   3   11.85    0.65
  -7   0   3   11.23    0.41
   6   0  -3   45.11    1.43
  -6   0   3   42.19    1.35
  -6   0   3   42.08    1.35
  -6   0   3   42.23    1.08
  -6   0   3   42.83    1.08
   5   0  -3    9.35    0.52
   5   0  -3    8.86    0.30
   5   0  -3    9.15    0.53
  -5   0   3    9.30    0.49
  -5   0   3    9.15    0.39
  -5   0   3    8.63    0.48
  -5   0   3    9.04    0.34
   4   0  -3    0.09    0.10
   4   0  -3    0.18    0.06
   4   0  -3    0.42    0.13
  -4   0   3    0.27    0.07
  -4   0   3    0.23    0.07
  -4   0   3    0.29    0.10
  -4   0   3    0.23    0.09
   3   0  -3   42.01    1.01
   3   0  -3   41.80    1.01
   3   0  -3   42.75    1.17
   3   0  -3   42.29    1.15
  -3   0   3   42.92    1.13
  -3   0   3   42.15    1.02
  -3   0   3   42.19    1.02
   2   0  -3   48.02    1.16
   2   0  -3   45.07    1.09
   2   0  -3   46.60    1.09
   2   0  -3   45.26    1.17
  -2   0   3   45.80    1.10
  -2   0   3   46.14    1.10
   1   0  -3    0.40    0.07
   1   0  -3    0.55    0.09
  -1   0   3    0.39    0.07
  -1   0   3    0.46    0.07
  -1   0   3    0.47    0.08
   0   0  -3   58.53    1.33
   0   0  -3   58.04    1.36
   0   0  -3   56.48    1.35
   0   0   3   57.88    1.35
  -1   0  -3    6.77    0.28
  -1   0  -3    6.89    0.29
  -1   0  -3    6.85    0.30
   1   0   3    6.80    0.28
   1   0   3    7.85    0.30
   1   0   3    6.79    0.30
   2   0   3  940.67   19.53
   2   0   3  904.63   19.44
  -3   0  -3  195.05    4.34
  -3   0  -3  200.02    4.32
  -3   0  -3  191.83    4.32
  -3   0  -3  198.12    4.44
   3   0   3  198.02    4.33
   3   0   3  195.27    4.45
   3   0   3  199.07    4.32
   3   0   3  196.13    4.35
   3   0   3  191.42    4.30
  -4   0  -3  298.43    6.80
  -4   0  -3  298.99    6.57
  -4   0  -3  305.51    6.57
  -4   0  -3  301.82    6.75
   4   0   3  307.53    6.66
   4   0   3  296.69    6.57
   4   0   3  304.42    6.62
   4   0   3  304.42    6.56
  -5   0  -3  200.67    4.46
  -5   0  -3  197.24    4.70
  -5   0  -3  200.73    4.58
  -5   0  -3  201.50    4.45
   5   0   3  199.24    4.43
   5   0   3  200.18    4.56
   5   0   3  191.76    4.41
   5   0   3  203.70    4.61
  -6   0  -3   36.26    1.17
  -6   0  -3   34.65    1.44
  -6   0  -3   36.88    1.06
  -6   0  -3   36.85    1.29
  -6   0  -3   34.22    1.02
   6   0   3   35.25    1.01
   6   0   3   36.04    1.14
   6   0   3   34.80    0.99
   6   0   3   35.68    1.20
  -7   0  -3   40.38    1.18
  -7   0  -3   42.18    1.49
  -7   0  -3   40.33    1.16
   7   0   3   38.05    1.08
   7   0   3   41.71    1.31
   7   0   3   41.39    1.40
   7   0   3   39.12    1.10
  -8   0  -3   44.36    1.63
  -8   0  -3   42.12    1.24
  -8   0  -3   40.57    1.20
   8   0   3   42.89    1.75
   8   0   3   43.08    1.38
   8   0   3   39.36    1.11
   8   0   3   41.16    1.11
  -9   0  -3   22.75    1.16
  -9   0  -3   18.19    0.99
  -9   0  -3   19.39    0.71
   8  -1  -3    5.30    0.57
  -8   1   3    5.91    0.36
  -8   1   3    5.91    0.62
  -8   1   3    5.79    0.46
   7  -1  -3   13.60    0.47
   7  -1  -3   14.63    0.82
  -7   1   3   14.53    0.72
  -7   1   3   13.49    0.55
  -7   1   3   13.47    0.54
   6  -1  -3   74.67    1.81
   6  -1  -3   77.94    2.20
  -6   1   3   77.31    1.88
  -6   1   3   75.94    2.08
  -6   1   3   75.18    1.87
  -6   1   3   78.16    2.37
   5  -1  -3  112.14    2.81
   5  -1  -3  109.82    2.52
   5  -1  -3  109.42    2.52
   5  -1  -3  109.76    2.81
  -5   1   3  112.07    2.73
  -5   1   3  110.47    2.75
  -5   1   3  110.01    2.56
  -5   1   3  110.92    2.57
   4  -1  -3    0.75    0.17
   4  -1  -3    0.75    0.13
   4  -1  -3    0.71    0.11
   4  -1  -3    0.74    0.16
  -4   1   3    0.77    0.14
  -4   1   3    0.66    0.11
  -4   1   3    0.78    0.15
  -4   1   3    0.80    0.13
   3  -1  -3  317.09    6.89
   3  -1  -3  310.66    6.75
   3  -1  -3  308.01    6.75
   3  -1  -3  325.46    6.90
  -3   1   3  311.62    6.76
  -3   1   3  319.36    6.78
  -3   1   3  308.31    6.83
   2  -1  -3   80.61    1.83
   2  -1  -3   79.02    1.88
   2  -1  -3   78.48    1.83
  -2   1   3   78.09    1.83
  -2   1   3   80.46    1.85
   1  -1  -3   16.66    0.51
   1  -1  -3   17.13    0.51
  -1   1   3   17.51    0.52
  -1   1   3   17.81    0.52
   0  -1  -3  159.19    3.88
   0  -1  -3  205.90    3.95
   0  -1  -3  203.88    3.96
   0   1   3  160.18    3.88
   0   1   3  164.21    3.88
  -1  -1  -3  959.10   21.11
   1   1   3 1000.00   21.13
  -2  -1  -3  477.92    9.98
  -2  -1  -3  466.71   10.02
  -2  -1  -3  468.27    9.97
   2   1   3  471.26    9.97
   2   1   3  466.86    9.97
   2   1   3  465.07   10.03
  -3  -1  -3  312.94    6.93
  -3  -1  -3  314.14    6.83
  -3  -1  -3  318.21    6.90
  -3  -1  -3  312.21    6.82
   3   1   3  314.81    6.82
   3   1   3  317.34    6.95
   3   1   3  324.95    6.82
   3   1   3  327.11    6.90
  -4  -1  -3  134.25    3.29
  -4  -1  -3  134.16    3.17
  -4  -1  -3  134.03    3.01
  -4  -1  -3  132.55    3.00
   4   1   3  134.97    2.98
   4   1   3  132.17    3.19
   4   1   3  131.84    3.11
   4   1   3  131.67    2.98
  -5  -1  -3   23.04    0.68
  -5  -1  -3   23.19    0.86
  -5  -1  -3   21.62    0.83
  -5  -1  -3   21.65    0.81
  -5  -1  -3   22.90    0.77
   5   1   3   22.03    0.65
   5   1   3   21.97    0.79
   5   1   3   22.36    0.66
  -6  -1  -3   31.01    1.11
  -6  -1  -3   30.34    0.88
  -6  -1  -3   29.23    1.08
  -6  -1  -3   29.36    0.86
  -6  -1  -3   29.31    1.03
   6   1   3   30.71    1.04
   6   1   3   29.41    0.81
  -7  -1  -3   61.84    1.59
  -7  -1  -3   62.06    1.87
  -7  -1  -3   64.27    1.61
  -7  -1  -3   66.77    1.98
   7   1   3   65.00    1.85
   7   1   3   61.07    1.51
   7   1   3   63.38    1.52
  -8  -1  -3   26.99    1.24
  -8  -1  -3   24.66    0.93
  -8  -1  -3   25.83    0.82
   8   1   3   26.34    1.05
  -9  -1  -3    3.67    0.29
  -9  -1  -3    4.56    0.58
  -9  -1  -3    4.55    0.32
   8  -2  -3   41.69    1.18
   8  -2  -3   42.31    1.65
  -8   2   3   43.80    1.34
  -8   2   3   42.62    1.26
  -8   2   3   45.51    1.75
   7  -2  -3   42.90    1.21
   7  -2  -3   43.37    1.22
   7  -2  -3   45.06    1.62
  -7   2   3   44.86    1.29
  -7   2   3   44.92    1.31
  -7   2   3   44.31    1.44
   6  -2  -3   92.43    2.59
   6  -2  -3   91.75    2.25
   6  -2  -3   94.09    2.26
  -6   2   3   94.79    2.30
  -6   2   3   94.86    2.32
  -6   2   3   90.38    2.41
  -6   2   3   90.67    2.49
   5  -2  -3   39.65    1.14
   5  -2  -3   41.24    1.15
   5  -2  -3   42.81    1.38
  -5   2   3   42.25    1.20
  -5   2   3   41.71    1.25
  -5   2   3   40.75    1.17
  -5   2   3   41.75    1.28
   4  -2  -3   34.17    0.98
   4  -2  -3   34.68    1.09
   4  -2  -3   35.89    1.13
   4  -2  -3   33.37    0.97
  -4   2   3   34.38    1.00
  -4   2   3   33.31    0.99
  -4   2   3   32.97    1.03
  -4   2   3   34.27    1.02
   3  -2  -3   80.73    1.97
   3  -2  -3   83.23    1.98
   3  -2  -3   81.96    2.03
  -3   2   3   81.55    2.03
  -3   2   3   82.24    1.98
  -3   2   3   82.53    1.99
   2  -2  -3  332.38    7.05
   2  -2  -3  318.99    7.04
   2  -2  -3  325.36    7.04
  -2   2   3  324.74    7.00
  -2   2   3  323.60    7.05
  -2   2   3  330.14    7.06
   1  -2  -3  299.03    6.34
   1  -2  -3  299.18    6.41
   1  -2  -3  289.07    6.40
  -1   2   3  294.15    6.40
  -1   2   3  298.33    6.41
   0  -2  -3    4.13    0.23
   0  -2  -3    3.61    0.22
   0   2   3    3.81    0.23
   0   2   3    3.89    0.21
   0   2   3    4.10    0.24
  -1  -2  -3  250.55    5.32
  -1  -2  -3  243.13    5.34
  -1  -2  -3  247.19    5.35
   1   2   3  248.23    5.35
   1   2   3  244.75    5.32
   1   2   3  246.49    5.34
  -2  -2  -3   62.84    1.52
  -2  -2  -3   64.03    1.53
  -2  -2  -3   64.12    1.52
   2   2   3   63.91    1.52
   2   2   3   62.93    1.55
   2   2   3   64.83    1.52
  -3  -2  -3    0.21    0.09
  -3  -2  -3    0.06    0.07
  -3  -2  -3    0.07    0.07
   3   2   3    0.02    0.06
   3   2   3    0.17    0.07
   3   2   3    0.21    0.09
   4   2   3    0.53    0.10
   4   2   3    0.52    0.12
   4   2   3    0.38    0.12
   4   2   3    0.40    0.09
  -5  -2  -3   10.65    0.53
  -5  -2  -3   10.54    0.53
  -5  -2  -3   11.00    0.40
  -5  -2  -3   10.73    0.54
   5   2   3   10.55    0.53
   5   2   3   10.35    0.53
   5   2   3   10.46    0.37
   5   2   3   10.16    0.40
  -6  -2  -3    9.95    0.40
  -6  -2  -3   10.66    0.41
  -6  -2  -3   10.44    0.58
  -6  -2  -3    9.91    0.56
  -6  -2  -3    9.89    0.56
   6   2   3   10.08    0.36
   6   2   3   10.24    0.57
   6   2   3    9.67    0.35
  -7  -2  -3    5.27    0.48
  -7  -2  -3    5.58    0.49
  -7  -2  -3    5.88    0.31
  -7  -2  -3    4.96    0.46
  -7  -2  -3    5.38    0.31
   7   2   3    6.34    0.48
  -8  -2  -3   30.86    0.88
  -8  -2  -3   33.39    1.28
  -8  -2  -3   32.02    0.89
   8   2   3   32.81    1.24
  -9  -2  -3   37.86    1.47
   9   2   3   35.96    1.39
   7  -3  -3    1.24    0.21
   7  -3  -3    2.58    0.42
  -7   3   3    2.46    0.36
  -7   3   3    1.81    0.29
  -7   3   3    1.80    0.25
   6  -3  -3   -0.08    0.12
   6  -3  -3    0.14    0.24
  -6   3   3    0.02    0.14
  -6   3   3    0.12    0.16
  -6   3   3   -0.02    0.14
  -6   3   3   -0.33    0.16
   5  -3  -3    3.29    0.38
   5  -3  -3    2.64    0.30
  -5   3   3    3.02    0.32
  -5   3   3    2.36    0.27
  -5   3   3    2.52    0.31
  -5   3   3    2.68    0.35
   4  -3  -3   12.48    0.62
   4  -3  -3   11.56    0.53
   4  -3  -3   10.89    0.50
  -4   3   3   10.82    0.54
  -4   3   3   11.02    0.54
  -4   3   3   11.48    0.53
  -4   3   3   11.39    0.50
   3  -3  -3    5.04    0.33
   3  -3  -3    5.19    0.36
   3  -3  -3    5.09    0.33
  -3   3   3    5.04    0.36
  -3   3   3    5.21    0.31
  -3   3   3    4.58    0.34
   2  -3  -3   10.65    0.47
   2  -3  -3   11.26    0.43
   2  -3  -3   11.50    0.49
  -2   3   3   10.83    0.48
  -2   3   3   10.37    0.40
  -2   3   3   11.18    0.50
   1  -3  -3  148.97    3.28
   1  -3  -3  145.26    3.53
   1  -3  -3  151.08    3.42
  -1   3   3  152.97    3.43
   0  -3  -3  200.43    4.35
   0  -3  -3  194.02    4.15
   0  -3  -3  187.94    4.32
   0   3   3  198.37    4.35
   0   3   3  191.97    4.28
  -1  -3  -3  498.16   10.68
  -1  -3  -3  507.26   10.73
  -1  -3  -3  494.32   10.72
   1   3   3  507.50   10.67
  -2  -3  -3  253.75    5.46
  -2  -3  -3  246.67    5.42
  -2  -3  -3  247.96    5.46
   2   3   3  248.75    5.46
   2   3   3  252.34    5.46
   2   3   3  250.39    5.44
  -3  -3  -3  137.19    3.14
  -3  -3  -3  139.36    3.14
  -3  -3  -3  137.63    3.15
   3   3   3  140.94    3.19
   3   3   3  140.35    3.14
   3   3   3  141.82    3.14
  -4  -3  -3  139.00    3.13
  -4  -3  -3  137.86    3.24
  -4  -3  -3  140.40    3.20
  -4  -3  -3  138.17    3.13
   4   3   3  139.01    3.24
   4   3   3  138.60    3.11
   4   3   3  138.42    3.30
   4   3   3  142.05    3.12
  -5  -3  -3  128.22    3.13
  -5  -3  -3  125.47    3.03
  -5  -3  -3  129.81    3.17
  -5  -3  -3  130.19    2.94
   5   3   3  130.46    2.90
   5   3   3  137.49    3.03
   5   3   3  127.83    3.11
   5   3   3  128.24    3.16
  -6  -3  -3   41.75    1.35
  -6  -3  -3   43.58    1.11
  -6  -3  -3   44.23    1.32
  -6  -3  -3   42.87    1.37
  -6  -3  -3   42.37    1.11
   6   3   3   42.85    1.05
   6   3   3   42.23    1.33
   6   3   3   42.91    1.05
   6   3   3   42.28    1.36
  -7  -3  -3   80.88    2.34
  -7  -3  -3   83.37    1.97
  -7  -3  -3   86.57    2.29
  -7  -3  -3   84.40    1.96
  -7  -3  -3   82.38    2.33
   7   3   3   86.07    2.36
  -8  -3  -3   70.39    1.69
  -8  -3  -3   72.85    2.12
   8   3   3   73.97    2.18
  -9  -3  -3   34.56    1.82
   9   3   3   33.24    1.34
   7  -4  -3    4.25    0.43
   7  -4  -3    4.84    0.56
  -7   4   3    4.62    0.48
  -7   4   3    5.15    0.59
  -7   4   3    4.82    0.43
   6  -4  -3   13.26    0.82
   6  -4  -3   13.96    0.68
  -6   4   3   14.43    0.66
  -6   4   3   14.88    0.76
  -6   4   3   13.92    0.70
   5  -4  -3    4.02    0.44
   5  -4  -3    3.76    0.36
  -5   4   3    3.51    0.37
  -5   4   3    4.77    0.43
  -5   4   3    4.15    0.37
  -5   4   3    4.26    0.33
   4  -4  -3   17.19    0.71
   4  -4  -3   15.37    0.67
  -4   4   3   16.47    0.71
  -4   4   3   16.05    0.61
  -4   4   3   16.90    0.74
  -4   4   3   15.27    0.63
   3  -4  -3   27.91    0.94
   3  -4  -3   26.63    0.92
  -3   4   3   28.25    0.98
  -3   4   3   27.45    0.95
  -3   4   3   26.77    0.86
   2  -4  -3  126.12    2.97
   2  -4  -3  118.20    2.94
  -2   4   3  120.86    2.95
  -2   4   3  125.68    2.99
   1  -4  -3  231.12    5.13
  -1   4   3  223.87    5.12
  -1   4   3  228.09    5.14
   0  -4  -3   48.05    1.29
   0  -4  -3   43.83    1.26
   0   4   3   45.28    1.28
   0   4   3   45.84    1.34
   0   4   3   46.80    1.28
  -1  -4  -3  113.55    2.67
  -1  -4  -3  109.08    2.65
   1   4   3  114.61    2.67
   1   4   3  114.12    2.58
   1   4   3  110.24    2.64
  -2  -4  -3   76.31    1.76
  -2  -4  -3   70.10    1.81
  -2  -4  -3   70.71    1.81
   2   4   3   74.68    1.82
   2   4   3   74.48    1.77
   2   4   3   73.38    1.81
  -3  -4  -3  168.93    3.77
  -3  -4  -3  170.69    3.77
  -3  -4  -3  167.07    3.83
   3   4   3  169.70    3.82
   3   4   3  172.20    3.83
   3   4   3  169.76    3.82
  -4  -4  -3  128.64    3.04
  -4  -4  -3  132.25    3.09
  -4  -4  -3  134.77    3.05
  -4  -4  -3  133.50    3.05
   4   4   3  135.06    3.04
   4   4   3  134.40    3.21
   4   4   3  133.77    3.04
   4   4   3  132.93    3.10
  -5  -4  -3  151.43    3.71
  -5  -4  -3  157.52    3.56
  -5  -4  -3  151.90    3.48
  -5  -4  -3  158.63    3.49
  -5  -4  -3  153.64    3.63
   5   4   3  152.72    3.61
   5   4   3  151.98    3.45
   5   4   3  156.65    3.46
  -6  -4  -3   32.57    1.10
  -6  -4  -3   32.60    0.91
  -6  -4  -3   32.88    0.92
  -6  -4  -3   31.50    1.14
  -6  -4  -3   33.76    1.05
   6   4   3   32.16    0.87
   6   4   3   30.87    1.06
   6   4   3   32.65    1.17
  -7  -4  -3   19.38    0.79
  -7  -4  -3   18.86    0.60
  -7  -4  -3   18.09    0.60
  -7  -4  -3   18.63    0.89
   7   4   3   18.47    0.88
  -8  -4  -3   13.92    0.72
   8   4   3   13.57    0.79
  -9  -4  -3    8.10    0.62
   9   4   3    9.03    0.68
   6  -5  -3   20.30    1.06
   6  -5  -3   19.65    0.88
  -6   5   3   21.37    0.98
  -6   5   3   18.63    0.91
  -6   5   3   20.35    0.77
   5  -5  -3   25.87    1.13
   5  -5  -3   25.97    1.01
  -5   5   3   24.51    0.85
  -5   5   3   26.29    1.07
  -5   5   3   23.92    0.91
  -5   5   3   24.68    1.01
   4  -5  -3   52.14    1.57
  -4   5   3   50.00    1.57
  -4   5   3   48.91    1.40
  -4   5   3   50.84    1.60
  -4   5   3   49.57    1.37
   3  -5  -3   29.10    1.04
  -3   5   3   27.13    1.02
  -3   5   3   28.21    1.06
   2  -5  -3   67.83    1.86
   2  -5  -3   63.67    1.83
  -2   5   3   66.05    1.84
  -2   5   3   67.60    1.88
   1  -5  -3   24.33    0.89
   1  -5  -3   23.58    0.87
  -1   5   3   22.61    0.85
  -1   5   3   24.28    0.90
   0  -5  -3   12.03    0.56
   0  -5  -3   12.37    0.58
   0   5   3   12.30    0.51
   0   5   3   12.25    0.58
  -1  -5  -3    0.56    0.15
  -1  -5  -3    0.60    0.16
   1   5   3    0.63    0.17
   1   5   3    0.71    0.13
   1   5   3    0.86    0.17
  -2  -5  -3   16.40    0.65
  -2  -5  -3   17.79    0.68
   2   5   3   17.42    0.65
   2   5   3   17.73    0.67
   2   5   3   17.71    0.60
  -3  -5  -3    3.56    0.30
  -3  -5  -3    3.96    0.26
  -3  -5  -3    3.62    0.22
  -3  -5  -3    3.76    0.29
   3   5   3    3.60    0.30
   3   5   3    3.64    0.29
   3   5   3    3.81    0.27
  -4  -5  -3    2.45    0.23
  -4  -5  -3    2.62    0.23
  -4  -5  -3    2.41    0.26
  -4  -5  -3    2.72    0.25
   4   5   3    2.52    0.25
   4   5   3    2.68    0.24
   4   5   3    2.41    0.24
   4   5   3    2.88    0.31
  -5  -5  -3    8.01    0.39
  -5  -5  -3    8.08    0.41
  -5  -5  -3    7.30    0.43
  -5  -5  -3    7.73    0.39
   5   5   3    7.68    0.38
   5   5   3    7.76    0.38
   5   5   3    7.83    0.60
   5   5   3    7.93    0.51
  -6  -5  -3    0.97    0.16
  -6  -5  -3    0.88    0.16
  -6  -5  -3    0.88    0.17
  -6  -5  -3    0.85    0.19
   6   5   3    0.99    0.19
   6   5   3    0.80    0.14
   6   5   3    0.86    0.14
   6   5   3    0.85    0.22
  -7  -5  -3   37.00    1.12
  -7  -5  -3   35.71    0.98
  -7  -5  -3   33.61    1.46
  -7  -5  -3   34.33    0.98
   7   5   3   34.20    1.29
   7   5   3   33.41    0.89
   7   5   3   32.91    1.13
   7   5   3   33.40    0.88
  -8  -5  -3   29.08    1.05
  -8  -5  -3   29.81    0.83
   8   5   3   28.57    1.29
  -9  -5  -3   20.73    0.91
   9   5   3   19.97    1.04
   5  -6  -3    0.68    0.26
   5  -6  -3    0.80    0.30
  -5   6   3    0.64    0.28
  -5   6   3    0.54    0.23
   4  -6  -3    0.56    0.23
  -4   6   3    0.96    0.25
  -4   6   3    0.36    0.22
  -4   6   3    0.42    0.14
   3  -6  -3    5.21    0.49
  -3   6   3    5.40    0.76
   2  -6  -3    8.47    0.57
  -2   6   3    8.48    0.61
  -2   6   3    7.82    0.56
   1  -6  -3   23.05    0.92
   1  -6  -3   20.69    0.88
  -1   6   3   21.95    0.93
  -1   6   3   20.60    0.89
   0  -6  -3   56.97    1.68
   0  -6  -3   54.55    1.65
   0   6   3   58.19    1.67
   0   6   3   58.49    1.71
   0   6   3   56.98    1.56
  -1  -6  -3   37.09    1.21
  -1  -6  -3   38.79    1.24
   1   6   3   38.35    1.24
   1   6   3   38.73    1.10
   1   6   3   36.27    1.20
  -2  -6  -3   14.99    0.66
  -2  -6  -3   15.46    0.68
   2   6   3   14.61    0.65
   2   6   3   15.81    0.69
   2   6   3   15.32    0.57
  -3  -6  -3   86.99    2.24
  -3  -6  -3   89.44    2.26
   3   6   3   80.47    2.46
   3   6   3   87.25    2.23
   3   6   3   92.14    2.29
   3   6   3   90.68    2.26
  -4  -6  -3   60.53    1.65
  -4  -6  -3   60.67    1.66
  -4  -6  -3   63.80    1.55
  -4  -6  -3   59.11    1.49
   4   6   3   60.21    1.74
   4   6   3   60.70    1.64
   4   6   3   61.78    1.65
   4   6   3   60.13    1.63
  -5  -6  -3   84.61    2.18
  -5  -6  -3   86.38    2.18
  -5  -6  -3   87.22    2.08
  -5  -6  -3   84.73    2.17
   5   6   3   84.94    2.14
   5   6   3   86.31    2.35
   5   6   3   86.61    2.15
   5   6   3   88.74    2.33
  -6  -6  -3   59.46    1.52
  -6  -6  -3   58.99    1.64
  -6  -6  -3   59.18    1.57
  -6  -6  -3   55.47    1.54
   6   6   3   59.57    1.83
   6   6   3   58.87    1.61
   6   6   3   57.43    1.52
   6   6   3   57.64    1.52
  -7  -6  -3   44.94    1.26
  -7  -6  -3   45.77    1.43
  -7  -6  -3   47.69    1.31
  -7  -6  -3   47.14    1.27
   7   6   3   45.53    1.59
   7   6   3   45.66    1.21
   7   6   3   43.16    1.35
  -8  -6  -3   29.79    0.89
  -8  -6  -3   31.38    1.03
  -8  -6  -3   29.12    1.03
   8   6   3   30.76    1.28
  -9  -6  -3   54.38    1.62
   9   6   3   54.64    1.93
   4  -7  -3   12.00    0.79
  -4   7   3   13.18    0.84
   3  -7  -3    8.33    0.64
  -3   7   3    8.85    0.66
  -3   7   3    8.26    0.38
   2  -7  -3   25.81    1.08
  -2   7   3   23.72    1.08
   1  -7  -3   30.47    1.19
  -1   7   3   30.93    1.18
  -1   7   3   32.42    1.24
   0  -7  -3   51.92    1.61
   0  -7  -3   47.77    1.56
   0   7   3   48.26    1.43
   0   7   3   51.37    1.62
   0   7   3   48.76    1.56
  -1  -7  -3   33.50    1.21
  -1  -7  -3   34.33    1.23
   1   7   3   34.57    1.20
   1   7   3   33.23    1.05
   1   7   3   35.28    1.25
  -2  -7  -3   49.76    1.55
  -2  -7  -3   48.25    1.52
   2   7   3   51.25    1.57
   2   7   3   49.27    1.38
   2   7   3   52.25    1.46
  -3  -7  -3   47.61    1.47
  -3  -7  -3   46.75    1.45
   3   7   3   48.06    1.45
   3   7   3   46.90    1.34
   3   7   3   49.37    1.49
  -4  -7  -3   75.59    2.05
  -4  -7  -3   77.75    2.08
   4   7   3   77.17    2.14
   4   7   3   80.53    2.14
   4   7   3   73.88    2.03
   4   7   3   73.52    1.94
  -5  -7  -3   24.41    0.89
  -5  -7  -3   21.94    0.71
  -5  -7  -3   22.74    0.99
   5   7   3   21.95    0.96
   5   7   3   22.99    0.85
   5   7   3   22.76    0.84
   5   7   3   22.66    0.79
  -6  -7  -3   42.61    1.18
  -6  -7  -3   41.57    1.27
  -6  -7  -3   43.76    1.29
  -6  -7  -3   41.56    1.23
   6   7   3   41.82    1.23
   6   7   3   41.21    1.47
   6   7   3   40.40    1.22
   6   7   3   40.63    1.22
  -7  -7  -3   -0.20    0.16
  -7  -7  -3   -0.16    0.13
  -7  -7  -3    0.08    0.13
  -7  -7  -3    0.05    0.11
   7   7   3    0.04    0.12
   7   7   3   -0.13    0.11
   7   7   3   -0.09    0.17
  -8  -7  -3    0.25    0.26
  -8  -7  -3    0.03    0.14
  -8  -7  -3    0.19    0.13
  -8  -7  -3    0.11    0.11
   8   7   3    0.20    0.20
  -9  -7  -3    3.57    0.28
  -9  -7  -3    3.27    0.36
  -9  -7  -3    3.24    0.29
   9   7   3    3.74    0.54
   2  -8  -3    1.69    0.35
  -2   8   3    1.50    0.33
   1  -8  -3    8.49    0.78
  -1   8   3    9.07    0.70
   0  -8  -3    0.55    0.27
   0   8   3    0.97    0.20
   0   8   3    0.66    0.27
  -1  -8  -3   -0.11    0.20
   1   8   3   -0.04    0.18
   1   8   3    0.19    0.13
   1   8   3    0.26    0.13
  -2  -8  -3    8.09    0.61
  -2  -8  -3    7.57    0.57
   2   8   3    8.52    0.50
   2   8   3    7.81    0.45
   2   8   3    7.84    0.61
  -3  -8  -3   -0.01    0.18
  -3  -8  -3   -0.07    0.16
   3   8   3   -0.01    0.12
   3   8   3    0.00    0.14
   3   8   3   -0.07    0.16
  -4  -8  -3    1.28    0.25
  -4  -8  -3    0.66    0.22
   4   8   3    0.84    0.23
   4   8   3    0.89    0.19
   4   8   3    0.82    0.24
  -5  -8  -3    3.46    0.38
  -5  -8  -3    3.37    0.42
   5   8   3    3.71    0.42
   5   8   3    3.14    0.43
   5   8   3    2.72    0.30
  -6  -8  -3    2.32    0.34
  -6  -8  -3    1.65    0.42
   6   8   3    1.92    0.29
   6   8   3    1.67    0.28
   6   8   3    1.70    0.38
  -7  -8  -3   14.42    0.67
  -7  -8  -3   14.82    0.71
  -7  -8  -3   14.32    0.65
   7   8   3   13.71    0.62
   7   8   3   16.30    0.91
   7   8   3   15.43    0.65
  -8  -8  -3    6.16    0.49
  -8  -8  -3    6.87    0.47
  -8  -8  -3    7.65    0.43
  -8  -8  -3    6.87    0.38
   8   8   3    7.07    0.65
   1  -9  -3    0.31    0.28
  -1   9   3    0.62    0.29
   0  -9  -3    2.78    0.45
   0   9   3    4.25    0.34
   0   9   3    4.14    0.57
  -1  -9  -3    6.56    0.61
   1   9   3    7.31    0.46
   1   9   3    6.90    0.64
   1   9   3    5.17    0.54
  -2  -9  -3    9.65    0.68
   2   9   3    7.46    0.50
   2   9   3    8.74    0.70
   2   9   3    9.19    0.55
  -3  -9  -3    7.76    0.89
  -3  -9  -3    6.32    0.57
   3   9   3    6.23    0.57
   3   9   3    6.75    0.50
  -4  -9  -3   31.81    1.22
  -4  -9  -3   33.58    1.27
   4   9   3   33.17    1.25
   4   9   3   32.86    1.23
  -5  -9  -3   15.07    0.80
  -5  -9  -3   13.40    0.76
   5   9   3   16.19    0.79
   5   9   3   15.94    0.86
   5   9   3   14.16    0.64
  -6  -9  -3   30.07    1.15
  -6  -9  -3   31.93    1.18
   6   9   3   32.03    1.29
   6   9   3   28.30    0.95
   6   9   3   31.12    1.13
  -7  -9  -3   10.61    0.59
  -7  -9  -3   10.53    0.64
   7   9   3    9.71    0.59
   7   9   3    9.75    0.74
  -2 -10  -3   18.40    0.99
   2  10   3   18.18    1.02
   2  10   3   17.69    0.79
  -3 -10  -3   11.37    0.80
   3  10   3   11.81    0.67
   3  10   3   11.90    0.88
  -4 -10  -3    7.52    0.65
   4  10   3    8.08    0.68
   4  10   3    7.29    0.58
   4  10   3    5.66    0.49
  -5 -10  -3    2.89    0.59
  -5 -10  -3    2.78    0.40
   5  10   3    3.05    0.46
   5  10   3    2.39    0.31
   5  10   3    3.41    0.48
   6   9  -4   13.63    0.69
   6   9  -4   13.63    0.70
  -6  -9   4   13.22    0.74
  -6  -9   4   13.10    0.70
   5   9  -4    8.69    0.51
   5   9  -4    9.69    0.62
  -5  -9   4    9.34    0.66
  -5  -9   4    9.70    0.76
  -5  -9   4   10.22    0.68
   4   9  -4    7.80    0.61
   4   9  -4    8.04    0.45
  -4  -9   4    8.19    0.63
  -4  -9   4    8.66    0.64
   3   9  -4   10.70    0.47
   3   9  -4   11.68    0.76
  -3  -9   4   11.69    0.76
   2   9  -4   12.03    0.79
  -2  -9   4   12.31    0.80
   1   9  -4   12.95    0.61
   1   9  -4   13.11    0.87
  -1  -9   4   13.82    0.86
   0  -9   4    6.82    0.65
   8   8  -4   21.64    1.03
  -8  -8   4   21.98    0.91
  -8  -8   4   20.68    0.75
   7   8  -4   11.51    0.71
  -7  -8   4   11.64    0.54
  -7  -8   4   11.12    0.59
   6   8  -4   11.22    0.64
   6   8  -4   11.12    0.57
  -6  -8   4   11.27    0.63
  -6  -8   4   10.02    0.57
  -6  -8   4   11.72    0.68
   5   8  -4    3.01    0.34
   5   8  -4    2.63    0.36
  -5  -8   4    2.73    0.39
  -5  -8   4    2.29    0.45
  -5  -8   4    3.40    0.37
   4   8  -4    2.19    0.30
   4   8  -4    2.83    0.40
  -4  -8   4    2.51    0.33
  -4  -8   4    2.93    0.41
  -4  -8   4    3.26    0.41
   3   8  -4    1.80    0.29
  -3  -8   4    1.14    0.28
  -3  -8   4    1.77    0.30
   2   8  -4    0.96    0.27
   2   8  -4    1.64    0.21
  -2  -8   4    2.25    0.34
  -2  -8   4    1.70    0.32
   1   8  -4    0.60    0.29
   1   8  -4    0.40    0.16
  -1  -8   4    0.48    0.23
   0   8  -4    3.82    0.41
   0   8  -4    4.26    0.55
   0  -8   4    3.85    0.53
  -1   8  -4    2.43    0.42
  -1   8  -4    2.00    0.33
   1  -8   4    2.51    0.41
  -2   8  -4    0.66    0.23
  -2   8  -4    0.78    0.28
  -2   8  -4    0.52    0.29
   2  -8   4    0.94    0.24
   2  -8   4    1.05    0.30
   8   7  -4    1.21    0.30
  -8  -7   4    1.71    0.22
  -8  -7   4    1.75    0.20
   7   7  -4    0.24    0.11
   7   7  -4    0.08    0.20
   7   7  -4    0.00    0.10
  -7  -7   4    0.17    0.14
  -7  -7   4    0.24    0.13
   6   7  -4    3.23    0.39
   6   7  -4    3.17    0.28
  -6  -7   4    3.05    0.34
  -6  -7   4    3.89    0.40
  -6  -7   4    2.95    0.30
   5   7  -4    3.05    0.32
   5   7  -4    3.21    0.31
   5   7  -4    2.74    0.34
  -5  -7   4    3.47    0.34
  -5  -7   4    3.49    0.38
  -5  -7   4    2.38    0.47
  -5  -7   4    3.26    0.35
   4   7  -4   19.39    0.75
   4   7  -4   20.14    0.81
  -4  -7   4   19.30    0.76
  -4  -7   4   20.19    0.84
  -4  -7   4   18.99    0.79
   3   7  -4   29.64    1.07
   3   7  -4   28.92    1.05
  -3  -7   4   28.56    1.06
  -3  -7   4   29.43    1.09
   2   7  -4   12.17    0.67
   2   7  -4   11.93    0.49
  -2  -7   4   11.97    0.68
  -2  -7   4   10.98    0.65
   1   7  -4   55.18    1.72
   1   7  -4   54.46    1.46
  -1  -7   4   54.00    1.76
  -1  -7   4   53.47    1.70
   0   7  -4   46.92    1.57
   0   7  -4   46.58    1.39
   0  -7   4   43.32    1.81
   0  -7   4   45.80    1.55
  -1   7  -4   17.84    0.95
  -1   7  -4   16.20    0.79
   1  -7   4   17.36    0.89
  -2   7  -4   11.20    0.78
  -2   7  -4   11.11    0.71
   2  -7   4   10.96    0.56
   2  -7   4   10.84    1.09
  -3   7  -4   10.85    0.77
  -3   7  -4   11.63    0.79
  -3   7  -4    8.78    0.62
   3  -7   4   11.03    0.59
   3  -7   4   10.18    0.74
   9   6  -4   11.75    0.81
   8   6  -4   48.71    1.90
   7   6  -4   34.53    1.28
  -7  -6   4   34.00    1.23
  -7  -6   4   33.36    0.94
   6   6  -4   43.00    1.40
   6   6  -4   40.58    1.11
  -6  -6   4   41.53    1.18
  -6  -6   4   43.08    1.36
  -6  -6   4   44.26    1.22
   5   6  -4   53.26    1.44
   5   6  -4   54.67    1.59
   5   6  -4   54.92    1.46
  -5  -6   4   53.14    1.48
  -5  -6   4   53.75    1.64
  -5  -6   4   56.35    1.51
  -5  -6   4   53.83    1.55
   4   6  -4   95.92    2.43
   4   6  -4   95.55    2.40
   4   6  -4   97.86    2.42
  -4  -6   4   95.99    2.48
  -4  -6   4   95.91    2.44
  -4  -6   4  101.59    2.47
  -4  -6   4   97.79    2.42
   3   6  -4   70.34    1.85
   3   6  -4   65.57    1.80
  -3  -6   4   68.00    1.85
  -3  -6   4   66.69    1.77
  -3  -6   4   65.60    1.82
   2   6  -4   77.06    2.04
   2   6  -4   73.01    2.02
  -2  -6   4   73.19    2.02
  -2  -6   4   75.32    2.04
   1   6  -4   44.81    1.19
   1   6  -4   44.15    1.39
   1   6  -4   40.51    1.75
  -1  -6   4   45.72    1.42
  -1  -6   4   43.19    1.38
   0   6  -4   18.78    0.84
   0   6  -4   19.09    0.77
   0   6  -4   19.36    0.84
   0  -6   4   17.58    0.81
   0  -6   4   18.83    0.85
  -1   6  -4   17.42    0.84
  -1   6  -4   16.71    0.81
  -1   6  -4   17.48    0.78
   1  -6   4   18.83    0.87
   1  -6   4   17.24    0.82
  -2   6  -4    9.67    0.64
  -2   6  -4    9.58    0.63
  -2   6  -4    9.87    0.67
   2  -6   4    9.77    0.49
   2  -6   4   10.07    0.65
  -3   6  -4    5.84    0.58
  -3   6  -4    6.37    0.59
   3  -6   4    5.88    0.55
   3  -6   4    5.72    0.42
  -4   6  -4    3.51    0.53
  -4   6  -4    4.34    0.57
  -4   6  -4    4.03    0.48
   4  -6   4    3.94    0.52
   4  -6   4    3.56    0.39
   9   5  -4   16.18    0.94
  -9  -5   4   16.69    0.67
   8   5  -4    8.41    0.90
  -8  -5   4    7.97    0.39
   7   5  -4   40.08    1.39
  -7  -5   4   36.37    1.30
   6   5  -4   11.29    0.63
  -6  -5   4   10.21    0.62
  -6  -5   4   10.31    0.58
   5   5  -4   26.98    0.96
   5   5  -4   25.55    0.76
   5   5  -4   24.91    0.77
  -5  -5   4   26.34    0.91
  -5  -5   4   25.58    0.80
  -5  -5   4   27.11    0.83
  -5  -5   4   26.07    0.98
   4   5  -4    4.03    0.29
   4   5  -4    4.01    0.34
   4   5  -4    4.22    0.31
  -4  -5   4    3.75    0.29
  -4  -5   4    4.30    0.31
  -4  -5   4    3.74    0.32
  -4  -5   4    3.83    0.35
   3   5  -4   28.89    0.89
   3   5  -4   27.97    0.89
   3   5  -4   28.06    0.91
  -3  -5   4   28.43    0.85
  -3  -5   4   28.64    0.93
  -3  -5   4   26.93    0.90
  -3  -5   4   27.90    0.91
   2   5  -4    1.09    0.19
   2   5  -4    1.39    0.20
  -2  -5   4    1.58    0.27
  -2  -5   4    1.29    0.19
  -2  -5   4    1.36    0.22
   1   5  -4    0.06    0.08
   1   5  -4    0.26    0.13
   1   5  -4    0.06    0.14
  -1  -5   4    0.08    0.07
  -1  -5   4    0.00    0.12
  -1  -5   4    0.25    0.14
   0   5  -4   15.68    0.62
   0   5  -4   14.81    0.67
   0   5  -4   15.95    0.71
   0  -5   4   16.06    0.72
   0  -5   4   15.16    0.69
  -1   5  -4   -0.07    0.13
  -1   5  -4    0.13    0.14
  -1   5  -4    0.28    0.18
   1  -5   4    0.33    0.16
   1  -5   4    0.28    0.15
  -2   5  -4    1.19    0.25
  -2   5  -4    0.74    0.21
  -2   5  -4    0.84    0.23
   2  -5   4    0.92    0.21
   2  -5   4    0.88    0.21
   2  -5   4    1.20    0.22
  -3   5  -4   11.32    0.70
  -3   5  -4   11.02    0.66
  -3   5  -4   12.12    0.70
   3  -5   4   12.21    0.68
   3  -5   4   11.23    0.54
  -4   5  -4   11.59    0.77
  -4   5  -4   12.42    0.70
  -4   5  -4   12.36    0.75
   4  -5   4   12.95    0.72
   4  -5   4   12.52    0.63
  -5   5  -4   10.42    0.79
  -5   5  -4   10.38    0.70
  -5   5  -4    8.32    0.67
   5  -5   4    9.54    0.67
   5  -5   4    9.47    0.60
   9   4  -4    2.61    0.42
  -9  -4   4    2.69    0.35
   8   4  -4    0.61    0.34
  -8  -4   4    1.07    0.20
   7   4  -4    0.08    0.17
  -7  -4   4    0.09    0.13
   6   4  -4    2.22    0.33
  -6  -4   4    2.16    0.17
  -6  -4   4    2.08    0.30
  -6  -4   4    1.76    0.46
  -6  -4   4    2.02    0.21
   5   4  -4   10.35    0.55
   5   4  -4    9.95    0.35
   5   4  -4   10.06    0.36
  -5  -4   4    9.59    0.39
  -5  -4   4   10.03    0.50
  -5  -4   4   10.57    0.57
   4   4  -4  110.59    2.61
   4   4  -4  112.90    2.60
   4   4  -4  115.86    2.78
  -4  -4   4  113.35    2.63
  -4  -4   4  112.58    2.96
  -4  -4   4  117.47    2.65
  -4  -4   4  113.35    2.81
   3   4  -4  104.00    2.46
   3   4  -4  109.30    2.51
   3   4  -4  101.02    2.43
  -3  -4   4  101.46    2.46
  -3  -4   4  103.97    2.44
  -3  -4   4  102.04    2.56
  -3  -4   4  106.94    2.48
   2   4  -4   54.00    1.44
   2   4  -4   54.78    1.46
  -2  -4   4   53.91    1.45
  -2  -4   4   54.82    1.34
  -2  -4   4   56.67    1.47
  -2  -4   4   55.04    1.42
   1   4  -4   29.87    0.79
   1   4  -4   28.47    0.92
   1   4  -4   29.68    0.95
  -1  -4   4   29.67    0.81
  -1  -4   4   30.19    0.95
  -1  -4   4   30.51    0.95
   0   4  -4   88.88    2.27
   0   4  -4   90.62    2.18
   0   4  -4   89.91    2.31
   0  -4   4   93.76    2.30
   0  -4   4   89.93    2.28
  -1   4  -4  171.42    4.04
  -1   4  -4  173.82    4.02
  -1   4  -4  169.87    4.01
   1  -4   4  174.21    4.03
   1  -4   4  168.90    4.01
  -2   4  -4  103.93    2.66
  -2   4  -4  104.14    2.68
  -2   4  -4  105.76    2.69
   2  -4   4  103.65    2.66
   2  -4   4  108.22    2.68
   2  -4   4  106.21    2.47
  -3   4  -4   61.91    1.82
  -3   4  -4   59.46    1.77
  -3   4  -4   58.41    1.73
   3  -4   4   60.23    1.67
   3  -4   4   61.76    1.76
  -4   4  -4   62.37    1.86
  -4   4  -4   66.12    2.01
  -4   4  -4   65.83    1.92
   4  -4   4   64.91    1.88
   4  -4   4   64.29    1.78
  -5   4  -4   25.38    1.04
  -5   4  -4   25.72    1.06
  -5   4  -4   24.43    1.31
   5  -4   4   25.58    1.02
   5  -4   4   25.50    0.98
  -6   4  -4   17.98    1.03
  -6   4  -4   16.82    0.86
  -6   4  -4   17.78    0.89
   6  -4   4   17.69    0.85
   6  -4   4   17.47    0.85
   9   3  -4   28.13    1.24
  -9  -3   4   28.08    1.12
   8   3  -4   19.56    0.96
   8   3  -4   18.67    1.17
  -8  -3   4   20.65    0.86
   7   3  -4  148.32    3.69
   7   3  -4  145.52    3.74
  -7  -3   4  143.51    3.62
  -7  -3   4  144.86    3.61
  -7  -3   4  150.43    3.52
   6   3  -4  116.98    2.99
   6   3  -4  121.71    3.06
  -6  -3   4  116.71    2.96
  -6  -3   4  120.49    2.83
  -6  -3   4  117.83    3.06
   5   3  -4  135.46    3.29
   5   3  -4  135.24    3.23
  -5  -3   4  131.78    3.29
  -5  -3   4  137.07    2.97
  -5  -3   4  134.52    3.20
  -5  -3   4  131.17    2.95
   4   3  -4  231.23    5.07
   4   3  -4  238.10    5.32
  -4  -3   4  232.92    5.03
  -4  -3   4  233.87    5.11
  -4  -3   4  239.41    5.36
  -4  -3   4  233.85    5.30
  -4  -3   4  239.29    5.13
   3   3  -4  110.39    2.55
   3   3  -4  109.75    2.53
   3   3  -4  114.36    2.64
  -3  -3   4  108.74    2.92
  -3  -3   4  110.26    2.56
  -3  -3   4  112.48    2.57
  -3  -3   4  114.42    2.57
   2   3  -4  144.65    3.30
   2   3  -4  146.91    3.31
  -2  -3   4  148.71    3.32
  -2  -3   4  144.82    3.21
  -2  -3   4  144.99    3.31
  -2  -3   4  144.78    3.32
  -2  -3   4  147.18    3.15
   1   3  -4  271.87    5.99
   1   3  -4  269.83    6.14
   1   3  -4  273.54    5.84
  -1  -3   4  269.05    5.99
  -1  -3   4  273.76    5.87
  -1  -3   4  275.18    6.00
  -1  -3   4  275.26    5.90
   0   3  -4  197.98    4.47
   0   3  -4  194.48    4.37
   0   3  -4  203.48    4.61
   0  -3   4  193.77    4.46
   0  -3   4  199.09    4.48
   0  -3   4  200.08    4.27
  -1   3  -4  114.66    2.78
  -1   3  -4  116.12    2.76
  -1   3  -4  118.44    2.97
   1  -3   4  115.39    2.57
   1  -3   4  119.42    2.81
   1  -3   4  114.59    2.79
  -2   3  -4   95.25    2.40
  -2   3  -4   94.14    2.36
  -2   3  -4   95.56    2.39
   2  -3   4   96.65    2.38
   2  -3   4   92.06    2.36
   2  -3   4   94.14    2.20
  -3   3  -4    0.14    0.12
  -3   3  -4    0.13    0.13
  -3   3  -4    0.17    0.15
   3  -3   4    0.16    0.11
   3  -3   4   -0.04    0.10
   3  -3   4   -0.12    0.13
  -4   3  -4    1.14    0.23
  -4   3  -4    0.98    0.20
  -4   3  -4    0.86    0.25
   4  -3   4    1.54    0.23
   4  -3   4    1.22    0.28
   4  -3   4    1.32    0.28
  -5   3  -4    0.54    0.22
  -5   3  -4    0.29    0.17
  -5   3  -4    0.29    0.17
   5  -3   4    0.29    0.16
   5  -3   4    0.47    0.17
  -6   3  -4    0.99    0.26
  -6   3  -4    0.97    0.33
  -6   3  -4    0.75    0.21
   6  -3   4    1.27    0.27
   6  -3   4    0.53    0.18
  -7   3  -4    4.03    0.45
  -7   3  -4    3.72    0.58
  -7   3  -4    3.46    0.44
   7  -3   4    4.36    0.50
   9   2  -4   39.06    1.53
  -9  -2   4   38.95    1.46
   8   2  -4   10.76    0.74
  -8  -2   4   10.17    0.64
   7   2  -4   29.16    1.12
   7   2  -4   27.27    1.12
  -7  -2   4   26.44    1.08
   6   2  -4   34.55    1.20
   6   2  -4   32.58    1.15
  -6  -2   4   32.42    1.16
  -6  -2   4   32.84    1.10
  -6  -2   4   32.29    1.10
   5   2  -4   11.74    0.59
   5   2  -4   11.95    0.57
  -5  -2   4   10.80    0.34
  -5  -2   4   11.29    0.57
  -5  -2   4   11.40    0.52
   4   2  -4    1.71    0.12
   4   2  -4    1.61    0.23
   4   2  -4    1.75    0.21
   4   2  -4    1.55    0.12
  -4  -2   4    1.69    0.20
  -4  -2   4    1.54    0.14
  -4  -2   4    1.77    0.23
  -4  -2   4    1.56    0.28
   3   2  -4    8.39    0.40
   3   2  -4    8.10    0.31
   3   2  -4    8.35    0.37
   3   2  -4    8.51    0.32
  -3  -2   4    7.87    0.32
  -3  -2   4    8.08    0.35
  -3  -2   4    8.40    0.33
  -3  -2   4    8.25    0.29
  -3  -2   4    8.19    0.41
   2   2  -4   11.13    0.40
   2   2  -4   11.10    0.37
   2   2  -4   10.83    0.40
  -2  -2   4   11.12    0.41
  -2  -2   4   11.19    0.34
  -2  -2   4   10.54    0.36
  -2  -2   4   11.03    0.44
   1   2  -4   27.58    0.80
   1   2  -4   27.67    0.80
   1   2  -4   28.60    0.71
  -1  -2   4   28.52    0.81
  -1  -2   4   28.31    0.73
  -1  -2   4   27.89    0.81
   0   2  -4    2.41    0.21
   0   2  -4    2.20    0.21
   0   2  -4    2.26    0.18
   0  -2   4    2.13    0.19
   0  -2   4    2.87    0.26
   0  -2   4    2.21    0.21
  -1   2  -4   64.11    1.60
  -1   2  -4   62.75    1.61
   1  -2   4   62.88    1.61
   1  -2   4   62.41    1.59
   1  -2   4   62.30    1.60
   1  -2   4   62.80    1.41
  -2   2  -4   69.71    1.80
  -2   2  -4   69.17    1.92
  -2   2  -4   68.36    1.76
   2  -2   4   68.78    1.76
   2  -2   4   68.15    1.62
  -3   2  -4    3.17    0.33
  -3   2  -4    3.04    0.29
  -3   2  -4    2.63    0.27
   3  -2   4    2.89    0.23
   3  -2   4    2.99    0.18
   3  -2   4    3.19    0.29
   3  -2   4    2.87    0.26
  -4   2  -4   56.35    1.55
  -4   2  -4   55.92    1.69
  -4   2  -4   55.70    1.57
   4  -2   4   54.43    1.53
   4  -2   4   55.66    1.38
   4  -2   4   54.56    1.66
   4  -2   4   57.55    1.56
  -5   2  -4   34.19    1.29
  -5   2  -4   34.33    1.16
  -5   2  -4   34.78    1.14
   5  -2   4   34.99    1.12
   5  -2   4   35.06    1.13
   5  -2   4   32.85    1.41
   5  -2   4   34.53    0.97
  -6   2  -4   23.46    1.02
  -6   2  -4   24.30    0.93
  -6   2  -4   23.79    1.10
   6  -2   4   22.90    0.94
   6  -2   4   22.58    0.87
  -7   2  -4   35.83    1.23
  -7   2  -4   35.05    1.46
  -7   2  -4   33.47    1.16
   7  -2   4   33.86    1.15
   7  -2   4   35.35    1.30
  -8   2  -4   21.51    1.17
  -8   2  -4   22.53    0.87
  -8   2  -4   21.98    0.93
   8  -2   4   20.25    0.85
   8  -2   4   20.91    1.02
   9   1  -4    0.03    0.22
  -9  -1   4    0.35    0.23
   8   1  -4    0.36    0.22
  -8  -1   4    0.51    0.20
   7   1  -4   17.13    0.87
   7   1  -4   17.72    0.86
  -7  -1   4   16.82    0.82
   6   1  -4    7.22    0.51
   6   1  -4    7.47    0.54
  -6  -1   4    7.70    0.50
  -6  -1   4    7.39    0.49
   5   1  -4   20.97    0.81
   5   1  -4   20.61    0.83
  -5  -1   4   21.17    0.58
  -5  -1   4   20.37    0.80
  -5  -1   4   21.38    0.78
  -5  -1   4   21.40    0.58
   4   1  -4   50.82    1.18
   4   1  -4   51.25    1.42
   4   1  -4   50.31    1.18
   4   1  -4   50.68    1.44
  -4  -1   4   51.70    1.43
  -4  -1   4   51.24    1.22
   3   1  -4  244.67    5.46
   3   1  -4  243.29    5.42
   3   1  -4  246.65    5.29
  -3  -1   4  250.33    5.32
  -3  -1   4  247.49    5.31
   2   1  -4  309.69    6.59
   2   1  -4  306.33    6.60
   2   1  -4  302.76    6.59
  -2  -1   4  311.43    6.60
  -2  -1   4  307.62    6.60
  -2  -1   4  305.87    6.55
   1   1  -4  255.95    5.53
   1   1  -4  259.35    5.47
   1   1  -4  256.98    5.54
   1   1  -4  250.89    5.42
  -1  -1   4  257.00    5.54
  -1  -1   4  255.44    5.54
  -1  -1   4  252.94    5.48
   0   1  -4  336.52    7.16
   0   1  -4  328.52    7.20
   0   1  -4  331.31    7.21
   0  -1   4  340.75    7.18
   0  -1   4  335.71    7.21
   0  -1   4  334.68    7.21
  -1   1  -4  483.31   10.11
  -1   1  -4  478.44   10.28
   1  -1   4  481.71   10.31
   1  -1   4  479.90   10.29
  -2   1  -4  310.00    6.59
  -2   1  -4  307.43    6.72
  -2   1  -4  309.13    6.77
  -2   1  -4  301.38    6.72
   2  -1   4  310.85    6.60
   2  -1   4  305.60    6.71
   2  -1   4  313.90    6.80
  -3   1  -4   27.29    0.94
  -3   1  -4   27.58    0.79
  -3   1  -4   27.89    0.87
  -3   1  -4   27.24    0.85
   3  -1   4   27.56    0.78
   3  -1   4   28.32    0.95
   3  -1   4   27.40    0.84
   3  -1   4   28.45    0.82
  -4   1  -4   78.15    2.10
  -4   1  -4   77.53    1.97
  -4   1  -4   78.84    2.06
  -4   1  -4   78.67    1.96
   4  -1   4   76.12    1.88
   4  -1   4   79.72    1.97
   4  -1   4   72.98    1.92
   4  -1   4   78.21    1.96
  -5   1  -4   60.02    1.62
  -5   1  -4   60.55    1.81
  -5   1  -4   60.07    1.63
   5  -1   4   60.36    1.57
   5  -1   4   59.62    1.66
   5  -1   4   58.72    1.60
   5  -1   4   57.92    1.58
  -6   1  -4   77.78    2.28
  -6   1  -4   73.82    1.99
  -6   1  -4   77.71    2.04
   6  -1   4   74.07    2.11
   6  -1   4   80.82    2.14
   6  -1   4   76.88    1.99
   6  -1   4   75.86    1.99
  -7   1  -4   12.17    0.81
  -7   1  -4   11.52    0.57
  -7   1  -4   12.16    0.61
   7  -1   4   11.15    0.57
   7  -1   4   11.01    0.66
   7  -1   4   11.70    0.56
  -8   1  -4   13.49    0.67
  -8   1  -4   12.62    0.89
  -8   1  -4   13.47    0.63
   8  -1   4   13.02    0.78
   8  -1   4   12.68    0.59
   9   0  -4   30.20    1.37
  -9   0   4   32.24    1.41
   8   0  -4   19.48    1.00
   7   0  -4   34.60    1.32
   7   0  -4   35.59    1.32
  -7   0   4   35.01    0.93
  -7   0   4   35.43    1.26
  -7   0   4   34.08    0.93
   6   0  -4   97.57    2.58
   6   0  -4   98.30    2.59
  -6   0   4   95.00    2.20
  -6   0   4   95.35    2.19
  -6   0   4   90.68    2.49
  -6   0   4   92.13    2.68
   5   0  -4  132.47    3.26
   5   0  -4  131.57    2.92
   5   0  -4  136.02    3.28
   5   0  -4  128.92    3.00
  -5   0   4  133.52    2.98
  -5   0   4  135.82    3.21
  -5   0   4  130.06    3.22
  -5   0   4  132.56    3.07
   4   0  -4  111.09    2.50
   4   0  -4  113.70    2.72
   4   0  -4  112.57    2.74
  -4   0   4  112.28    2.53
  -4   0   4  110.34    2.52
  -4   0   4  111.47    2.71
  -4   0   4  110.64    2.67
   3   0  -4  314.96    6.99
   3   0  -4  323.19    6.84
   3   0  -4  317.02    6.84
   3   0  -4  322.55    6.98
  -3   0   4  318.41    6.85
  -3   0   4  320.10    6.86
   2   0  -4  435.40    9.23
   2   0  -4  426.76    9.16
   2   0  -4  432.37    9.19
   2   0  -4  431.23    9.16
  -2   0   4  429.01    9.17
  -2   0   4  428.89    9.16
  -2   0   4  428.31    9.16
   1   0  -4   98.29    2.27
   1   0  -4  100.20    2.27
   1   0  -4  101.20    2.25
  -1   0   4  100.40    2.27
  -1   0   4   99.76    2.24
  -1   0   4   99.42    2.27
   0   0  -4   46.15    1.16
   0   0  -4   47.31    1.13
   0   0  -4   45.96    1.16
   0   0   4   45.88    1.14
   0   0   4   45.45    1.16
   0   0   4   47.29    1.16
  -1   0  -4  350.03    7.48
  -1   0  -4  352.62    7.47
  -1   0  -4  339.23    7.46
   1   0   4  350.72    7.49
   1   0   4  344.39    7.47
  -2   0  -4   18.55    0.56
  -2   0  -4   19.61    0.65
  -2   0  -4   19.30    0.62
  -2   0  -4   19.68    0.62
   2   0   4   19.05    0.61
   2   0   4   19.27    0.66
   2   0   4   19.15    0.61
  -3   0  -4   39.36    1.17
  -3   0  -4   39.74    1.08
  -3   0  -4   40.13    1.10
  -3   0  -4   41.32    1.11
   3   0   4   41.24    1.35
   3   0   4   41.72    1.14
   3   0   4   41.41    1.11
  -4   0  -4    0.96    0.16
  -4   0  -4    0.76    0.18
  -4   0  -4    0.78    0.14
  -4   0  -4    0.98    0.20
   4   0   4    0.82    0.14
   4   0   4    0.69    0.14
   4   0   4    0.80    0.16
   4   0   4    1.03    0.15
  -5   0  -4    0.47    0.17
  -5   0  -4    0.29    0.15
  -5   0  -4    0.23    0.11
  -5   0  -4    0.33    0.13
   5   0   4    0.29    0.12
   5   0   4    0.30    0.11
   5   0   4    0.16    0.12
  -6   0  -4    2.98    0.37
  -6   0  -4    2.83    0.32
  -6   0  -4    2.18    0.27
  -6   0  -4    2.49    0.27
  -6   0  -4    2.50    0.38
   6   0   4    2.83    0.31
   6   0   4    2.79    0.26
   6   0   4    2.31    0.25
   6   0   4    2.58    0.33
  -7   0  -4   -0.20    0.16
  -7   0  -4    0.05    0.12
  -7   0  -4    0.11    0.13
   7   0   4    0.07    0.14
   7   0   4   -0.10    0.09
   7   0   4    0.08    0.14
  -8   0  -4    0.81    0.19
  -8   0  -4    0.64    0.27
  -8   0  -4    0.57    0.16
   8   0   4    0.64    0.22
   8   0   4    0.80    0.13
  -9   0  -4   14.49    0.66
  -9   0  -4   14.49    0.96
  -9   0  -4   14.32    0.62
   9   0   4   14.63    0.54
   8  -1  -4   17.46    0.96
  -8   1   4   16.54    0.71
  -8   1   4   16.47    0.62
   7  -1  -4    8.76    0.35
  -7   1   4    8.82    0.59
  -7   1   4    9.58    0.44
  -7   1   4    9.44    0.45
   6  -1  -4   64.49    1.61
   6  -1  -4   69.48    1.99
   6  -1  -4   68.02    2.01
  -6   1   4   65.59    1.89
  -6   1   4   65.39    1.96
  -6   1   4   67.04    1.69
  -6   1   4   67.67    1.68
   5  -1  -4   25.87    0.97
   5  -1  -4   24.21    0.72
   5  -1  -4   23.64    0.72
   5  -1  -4   25.39    0.95
  -5   1   4   24.40    0.89
  -5   1   4   25.02    0.77
  -5   1   4   24.50    0.76
  -5   1   4   24.03    0.87
   4  -1  -4   28.31    0.95
   4  -1  -4   26.64    0.78
   4  -1  -4   28.64    0.96
   4  -1  -4   27.95    0.79
  -4   1   4   27.56    0.81
  -4   1   4   27.95    0.82
  -4   1   4   27.91    0.89
   3  -1  -4    9.61    0.45
   3  -1  -4    9.75    0.45
   3  -1  -4    9.12    0.37
   3  -1  -4    9.06    0.38
  -3   1   4    9.18    0.38
  -3   1   4    9.87    0.40
   2  -1  -4    3.20    0.21
   2  -1  -4    3.33    0.23
   2  -1  -4    3.32    0.22
  -2   1   4    3.27    0.21
  -2   1   4    3.44    0.22
   1  -1  -4    0.15    0.07
   1  -1  -4    0.08    0.07
  -1   1   4    0.21    0.07
  -1   1   4    0.07    0.07
  -1   1   4    0.10    0.06
   0  -1  -4   55.81    1.36
   0  -1  -4   56.23    1.36
   0   1   4   55.51    1.36
   0   1   4   54.67    1.36
   0   1   4   55.43    1.34
  -1  -1  -4   21.94    0.64
  -1  -1  -4   21.64    0.64
  -1  -1  -4   20.72    0.63
   1   1   4   22.39    0.65
   1   1   4   20.62    0.63
   1   1   4   20.86    0.63
  -2  -1  -4  132.90    2.99
  -2  -1  -4  131.33    3.02
  -2  -1  -4  134.72    2.99
   2   1   4  128.45    2.98
   2   1   4  133.17    2.99
   2   1   4  133.47    3.05
  -3  -1  -4    3.05    0.22
  -3  -1  -4    3.03    0.27
  -3  -1  -4    2.82    0.23
  -3  -1  -4    2.96    0.22
   3   1   4    3.17    0.22
   3   1   4    2.93    0.27
   3   1   4    2.79    0.21
  -4  -1  -4  136.63    3.32
  -4  -1  -4  144.23    3.39
  -4  -1  -4  143.78    3.61
  -4  -1  -4  144.72    3.26
   4   1   4  142.44    3.42
   4   1   4  143.01    3.24
   4   1   4  146.36    3.34
   4   1   4  142.12    3.23
  -5  -1  -4   91.13    2.17
  -5  -1  -4   90.25    2.35
  -5  -1  -4   90.05    2.16
  -5  -1  -4   86.51    2.27
   5   1   4   89.52    2.27
   5   1   4   90.72    2.13
   5   1   4   89.86    2.37
   5   1   4   86.11    2.11
  -6  -1  -4  135.80    3.34
  -6  -1  -4  139.40    3.17
  -6  -1  -4  132.33    3.64
  -6  -1  -4  137.16    3.15
  -6  -1  -4  137.17    3.42
   6   1   4  138.94    3.34
   6   1   4  130.74    3.09
   6   1   4  134.69    3.10
  -7  -1  -4   47.85    1.59
  -7  -1  -4   46.21    1.27
  -7  -1  -4   43.16    1.46
  -7  -1  -4   47.07    1.29
   7   1   4   46.04    1.47
   7   1   4   44.84    1.19
  -8  -1  -4   97.19    2.82
  -8  -1  -4   94.36    2.31
  -8  -1  -4   92.24    2.28
   8   1   4   96.70    2.58
   8   1   4   90.86    2.17
   8   1   4   86.90    2.15
  -9  -1  -4   47.86    1.36
  -9  -1  -4   47.57    1.38
  -9  -1  -4   50.63    1.83
   9   1   4   51.49    1.94
   8  -2  -4    0.36    0.15
   8  -2  -4    0.21    0.22
  -8   2   4    0.51    0.15
  -8   2   4    0.47    0.18
   7  -2  -4    7.51    0.40
   7  -2  -4    8.91    0.68
   7  -2  -4    8.17    0.40
  -7   2   4    8.68    0.47
  -7   2   4    9.91    0.52
  -7   2   4    8.92    0.57
   6  -2  -4   23.10    1.01
   6  -2  -4   22.16    0.75
   6  -2  -4   21.18    0.73
  -6   2   4   21.78    0.90
  -6   2   4   21.11    0.77
  -6   2   4   22.67    0.82
  -6   2   4   21.52    0.89
   5  -2  -4   37.04    1.07
   5  -2  -4   37.48    1.07
   5  -2  -4   38.15    1.26
   5  -2  -4   38.38    1.31
  -5   2   4   37.89    1.12
  -5   2   4   36.64    1.10
  -5   2   4   37.20    1.19
  -5   2   4   37.44    1.18
   4  -2  -4   74.58    1.88
   4  -2  -4   77.68    2.07
   4  -2  -4   77.15    1.89
   4  -2  -4   77.63    2.02
  -4   2   4   75.84    1.92
  -4   2   4   76.35    1.94
  -4   2   4   74.51    1.90
   3  -2  -4  120.97    2.86
   3  -2  -4  117.89    2.79
   3  -2  -4  121.36    2.79
  -3   2   4  123.64    2.82
  -3   2   4  117.08    2.79
   2  -2  -4  309.34    6.66
   2  -2  -4  302.62    6.79
   2  -2  -4  315.01    6.68
  -2   2   4  302.76    6.68
  -2   2   4  301.22    6.66
   1  -2  -4  363.40    7.64
   1  -2  -4  351.43    7.71
   1  -2  -4  361.57    7.71
  -1   2   4  356.92    7.71
  -1   2   4  355.62    7.70
  -1   2   4  354.04    7.72
   0  -2  -4   15.13    0.52
   0  -2  -4   15.91    0.52
   0   2   4   15.50    0.51
   0   2   4   16.13    0.54
  -1  -2  -4  518.93   10.87
  -1  -2  -4  506.20   10.89
  -1  -2  -4  505.63   10.88
   1   2   4  506.54   10.87
   1   2   4  506.47   10.88
   1   2   4  517.31   10.90
  -2  -2  -4  355.75    7.67
  -2  -2  -4  353.20    7.68
   2   2   4  362.82    7.68
   2   2   4  354.62    7.71
   2   2   4  355.42    7.67
  -3  -2  -4  124.56    2.86
  -3  -2  -4  124.02    2.90
  -3  -2  -4  124.32    2.85
   3   2   4  126.57    2.85
   3   2   4  126.28    2.94
   3   2   4  123.94    2.85
  -4  -2  -4   27.90    0.82
  -4  -2  -4   27.40    0.90
  -4  -2  -4   28.32    1.04
  -4  -2  -4   27.32    0.82
   4   2   4   28.51    0.81
   4   2   4   27.74    0.93
   4   2   4   29.49    0.85
   4   2   4   29.33    1.05
  -5  -2  -4  136.75    3.11
  -5  -2  -4  135.09    3.28
  -5  -2  -4  133.79    3.27
   5   2   4  136.68    3.28
   5   2   4  134.62    3.08
   5   2   4  138.41    3.08
   5   2   4  134.81    3.32
  -6  -2  -4   82.82    2.20
  -6  -2  -4   77.67    2.19
  -6  -2  -4   81.18    1.96
  -6  -2  -4   79.11    2.17
  -6  -2  -4   79.03    1.95
   6   2   4   78.60    1.90
   6   2   4   79.15    2.21
   6   2   4   80.39    1.90
   6   2   4   81.58    2.17
  -7  -2  -4   35.14    1.27
  -7  -2  -4   38.67    1.33
  -7  -2  -4   36.67    1.03
  -7  -2  -4   34.00    1.29
  -7  -2  -4   36.62    1.03
   7   2   4   34.73    0.95
   7   2   4   36.82    1.28
   7   2   4   36.18    1.00
  -8  -2  -4   47.77    1.28
  -8  -2  -4   50.31    1.67
  -8  -2  -4   44.76    1.28
   8   2   4   47.79    1.60
  -9  -2  -4    0.20    0.25
  -9  -2  -4   -0.04    0.11
  -9  -2  -4    0.03    0.12
   9   2   4    0.09    0.20
   7  -3  -4   12.84    0.59
   7  -3  -4   12.68    0.85
  -7   3   4   13.53    0.67
  -7   3   4   13.68    0.71
  -7   3   4   13.22    0.63
   6  -3  -4   46.60    1.36
   6  -3  -4   50.08    1.71
  -6   3   4   46.68    1.45
  -6   3   4   47.86    1.41
  -6   3   4   40.04    1.43
  -6   3   4   49.65    1.44
   5  -3  -4   24.14    0.85
   5  -3  -4   25.32    1.04
   5  -3  -4   24.78    0.85
  -5   3   4   24.61    0.87
  -5   3   4   24.03    0.89
  -5   3   4   25.53    0.91
  -5   3   4   23.65    0.89
   4  -3  -4   39.96    1.17
   4  -3  -4   37.76    1.15
   4  -3  -4   39.64    1.21
  -4   3   4   39.60    1.20
  -4   3   4   39.63    1.15
  -4   3   4   36.79    1.16
   3  -3  -4   77.11    1.95
   3  -3  -4   78.97    1.97
   3  -3  -4   75.13    1.95
  -3   3   4   78.82    1.99
  -3   3   4   75.76    1.96
   2  -3  -4  201.37    4.47
   2  -3  -4  198.43    4.39
   2  -3  -4  191.16    4.45
  -2   3   4  195.27    4.46
  -2   3   4  201.09    4.49
   1  -3  -4   48.00    1.29
   1  -3  -4   45.45    1.26
   1  -3  -4   47.26    1.16
  -1   3   4   46.71    1.27
  -1   3   4   47.66    1.32
  -1   3   4   46.17    1.25
   0  -3  -4   65.40    1.66
   0  -3  -4   68.22    1.68
   0   3   4   66.40    1.68
   0   3   4   65.20    1.62
  -1  -3  -4   46.52    1.24
  -1  -3  -4   45.92    1.20
   1   3   4   45.94    1.24
   1   3   4   47.04    1.20
   1   3   4   46.34    1.23
  -2  -3  -4   26.05    0.77
  -2  -3  -4   26.35    0.80
  -2  -3  -4   26.19    0.80
   2   3   4   27.38    0.80
   2   3   4   26.47    0.79
   2   3   4   26.47    0.79
  -3  -3  -4  136.26    3.12
  -3  -3  -4  137.16    3.14
  -3  -3  -4  135.04    3.13
   3   3   4  138.71    3.18
   3   3   4  135.60    3.12
   3   3   4  138.66    3.25
  -4  -3  -4    0.16    0.10
  -4  -3  -4    0.27    0.10
   4   3   4    0.26    0.10
   4   3   4    0.29    0.10
   4   3   4    0.36    0.11
   4   3   4    0.44    0.14
  -5  -3  -4    7.39    0.46
  -5  -3  -4    7.36    0.37
  -5  -3  -4    7.59    0.44
  -5  -3  -4    7.13    0.36
   5   3   4    7.49    0.35
   5   3   4    7.69    0.48
   5   3   4    7.07    0.44
   5   3   4    7.28    0.35
  -6  -3  -4    3.84    0.27
  -6  -3  -4    3.35    0.35
  -6  -3  -4    4.72    0.40
  -6  -3  -4    4.23    0.39
  -6  -3  -4    3.40    0.27
   6   3   4    4.18    0.25
   6   3   4    3.58    0.25
   6   3   4    4.46    0.41
   6   3   4    3.63    0.37
  -7  -3  -4    0.54    0.18
  -7  -3  -4    0.33    0.12
  -7  -3  -4    0.59    0.14
   7   3   4    0.36    0.10
   7   3   4    0.45    0.10
   7   3   4    0.28    0.18
  -8  -3  -4   12.04    0.48
  -8  -3  -4   10.81    0.47
  -8  -3  -4   13.69    0.76
   8   3   4   13.29    0.76
  -9  -3  -4    7.91    0.36
  -9  -3  -4    8.65    0.67
   9   3   4    9.27    0.68
   7  -4  -4    5.54    0.58
   7  -4  -4    4.11    0.42
  -7   4   4    4.61    0.49
  -7   4   4    4.95    0.46
  -7   4   4    6.02    0.45
   6  -4  -4    3.40    0.39
   6  -4  -4    4.08    0.51
  -6   4   4    4.19    0.46
  -6   4   4    3.61    0.40
  -6   4   4    4.41    0.40
   5  -4  -4   23.79    1.22
   5  -4  -4   25.03    0.92
  -5   4   4   22.77    0.86
  -5   4   4   24.78    0.97
  -5   4   4   23.78    0.92
  -5   4   4   23.35    0.87
   4  -4  -4   12.87    0.61
   4  -4  -4   14.71    0.66
  -4   4   4   13.56    0.65
  -4   4   4   14.17    0.69
   3  -4  -4   10.88    0.56
   3  -4  -4   10.59    0.53
  -3   4   4   10.00    0.56
  -3   4   4   10.66    0.55
   2  -4  -4   12.61    0.59
   2  -4  -4   11.91    0.48
   2  -4  -4   12.09    0.55
  -2   4   4   11.70    0.56
  -2   4   4   12.39    0.59
   1  -4  -4   10.43    0.50
   1  -4  -4   10.50    0.38
   1  -4  -4   11.48    0.56
  -1   4   4   10.94    0.54
  -1   4   4   11.03    0.51
   0  -4  -4    0.22    0.13
   0  -4  -4    0.37    0.07
   0  -4  -4    0.23    0.09
   0   4   4    0.39    0.12
   0   4   4    0.32    0.10
   0   4   4    0.26    0.12
  -1  -4  -4    8.53    0.44
  -1  -4  -4    8.19    0.59
   1   4   4    8.71    0.42
   1   4   4    8.47    0.45
   1   4   4    8.06    0.42
  -2  -4  -4   17.82    0.60
  -2  -4  -4   17.85    0.65
  -2  -4  -4   18.04    0.64
   2   4   4   18.09    0.62
   2   4   4   17.52    0.64
   2   4   4   17.33    0.64
  -3  -4  -4  109.95    2.61
  -3  -4  -4  109.66    2.61
  -3  -4  -4  111.10    2.57
   3   4   4  111.34    2.60
   3   4   4  109.56    2.61
   3   4   4  107.20    2.61
  -4  -4  -4   42.70    1.17
  -4  -4  -4   41.00    1.15
  -4  -4  -4   41.63    1.16
   4   4   4   41.73    1.27
   4   4   4   41.47    1.14
   4   4   4   41.59    1.22
   4   4   4   41.20    1.14
  -5  -4  -4  183.24    4.19
  -5  -4  -4  183.34    4.12
  -5  -4  -4  180.61    4.12
  -5  -4  -4  181.78    4.25
   5   4   4  182.45    4.25
   5   4   4  184.46    4.35
   5   4   4  183.65    4.10
   5   4   4  182.23    4.10
  -6  -4  -4  159.14    3.58
  -6  -4  -4  157.42    3.72
  -6  -4  -4  160.42    3.96
  -6  -4  -4  154.39    3.59
  -6  -4  -4  154.30    3.80
   6   4   4  159.31    3.54
   6   4   4  156.69    3.79
   6   4   4  159.94    3.89
   6   4   4  155.57    3.55
  -7  -4  -4   49.27    1.49
  -7  -4  -4   49.47    1.28
  -7  -4  -4   47.38    1.54
  -7  -4  -4   47.94    1.29
   7   4   4   46.35    1.51
   7   4   4   49.22    1.21
   7   4   4   50.79    1.62
   7   4   4   46.62    1.20
  -8  -4  -4   85.39    2.03
  -8  -4  -4   80.16    2.03
  -8  -4  -4   84.58    2.35
   8   4   4   88.34    2.83
  -9  -4  -4   31.53    1.47
   9   4   4   31.04    1.32
   6  -5  -4    9.70    0.75
   6  -5  -4    8.70    0.59
  -6   5   4   10.15    0.70
  -6   5   4   10.44    0.56
  -6   5   4   12.16    0.68
   5  -5  -4    4.98    0.52
   5  -5  -4    4.93    0.46
  -5   5   4    4.49    0.47
  -5   5   4    5.57    0.53
  -5   5   4    4.57    0.39
   4  -5  -4   15.52    0.75
  -4   5   4   14.39    0.60
  -4   5   4   14.42    0.74
  -4   5   4   16.56    0.86
   3  -5  -4   40.71    1.32
  -3   5   4   40.56    1.35
  -3   5   4   38.44    1.30
   2  -5  -4  102.19    2.58
  -2   5   4   98.56    2.59
  -2   5   4   96.77    2.55
   1  -5  -4   44.24    1.38
   1  -5  -4   47.75    1.42
  -1   5   4   48.15    1.44
  -1   5   4   47.54    1.41
   0  -5  -4   69.73    1.84
   0  -5  -4   66.49    1.81
   0   5   4   65.75    1.73
   0   5   4   65.31    1.80
   0   5   4   69.74    1.85
  -1  -5  -4   54.22    1.51
  -1  -5  -4   52.30    1.49
   1   5   4   53.65    1.41
   1   5   4   52.99    1.49
   1   5   4   54.10    1.52
  -2  -5  -4   64.66    1.76
  -2  -5  -4   67.43    1.78
   2   5   4   68.36    1.78
   2   5   4   65.79    1.75
   2   5   4   66.39    1.69
  -3  -5  -4  274.11    6.03
  -3  -5  -4  271.48    6.11
  -3  -5  -4  275.32    6.12
  -3  -5  -4  271.75    5.94
   3   5   4  281.35    6.12
   3   5   4  274.31    6.11
   3   5   4  272.95    6.09
  -4  -5  -4   65.93    1.74
  -4  -5  -4   68.42    1.81
  -4  -5  -4   66.40    1.74
  -4  -5  -4   64.86    1.67
   4   5   4   66.65    1.73
   4   5   4   67.50    1.76
   4   5   4   66.21    1.72
  -5  -5  -4   71.40    1.81
  -5  -5  -4   69.61    1.82
  -5  -5  -4   72.86    1.83
  -5  -5  -4   70.17    1.86
   5   5   4   71.04    1.89
   5   5   4   71.73    2.02
   5   5   4   69.49    1.79
   5   5   4   72.00    1.80
  -6  -5  -4   34.71    1.06
  -6  -5  -4   37.12    1.12
  -6  -5  -4   36.87    1.07
  -6  -5  -4   34.96    1.16
   6   5   4   35.50    1.03
   6   5   4   35.94    1.02
   6   5   4   36.06    1.17
   6   5   4   35.86    1.28
  -7  -5  -4   48.89    1.34
  -7  -5  -4   50.75    1.46
  -7  -5  -4   49.19    1.63
  -7  -5  -4   50.03    1.33
   7   5   4   48.17    1.27
   7   5   4   45.91    1.49
   7   5   4   49.71    1.66
  -8  -5  -4   15.49    0.58
  -8  -5  -4   16.03    0.79
  -8  -5  -4   16.12    0.76
   8   5   4   15.92    0.89
  -9  -5  -4   26.96    1.09
   9   5   4   27.17    1.25
   5  -6  -4   17.86    0.99
   5  -6  -4   18.36    0.92
  -5   6   4   20.03    0.98
  -5   6   4   17.86    0.72
  -5   6   4   19.53    0.93
   4  -6  -4   25.08    1.05
  -4   6   4   24.60    1.07
  -4   6   4   23.87    0.82
  -4   6   4   23.36    1.04
   3  -6  -4   20.48    0.91
  -3   6   4   19.93    0.96
  -3   6   4   18.43    1.01
   2  -6  -4   34.02    1.22
  -2   6   4   34.55    1.24
  -2   6   4   33.30    1.25
   1  -6  -4   36.16    1.23
   1  -6  -4   32.85    1.18
  -1   6   4   33.24    1.19
  -1   6   4   36.40    1.25
  -1   6   4   34.27    1.14
   0  -6  -4   41.38    1.37
   0  -6  -4   34.00    1.19
   0   6   4   33.50    1.20
   0   6   4   33.44    1.08
   0   6   4   33.72    1.17
  -1  -6  -4    9.74    0.55
  -1  -6  -4    9.27    0.56
   1   6   4    9.38    0.56
   1   6   4    9.50    0.47
   1   6   4   10.57    0.57
  -2  -6  -4   41.67    1.32
  -2  -6  -4   43.84    1.34
   2   6   4   43.90    1.24
   2   6   4   45.08    1.36
   2   6   4   43.44    1.32
  -3  -6  -4    5.86    0.41
  -3  -6  -4    5.59    0.42
   3   6   4    5.95    0.63
   3   6   4    5.98    0.41
   3   6   4    5.92    0.37
  -4  -6  -4    1.33    0.21
  -4  -6  -4    1.12    0.21
  -4  -6  -4    1.11    0.16
  -4  -6  -4    1.32    0.24
   4   6   4    1.27    0.22
   4   6   4    0.98    0.17
   4   6   4    1.55    0.26
   4   6   4    1.06    0.24
  -5  -6  -4    3.06    0.28
  -5  -6  -4    3.17    0.31
  -5  -6  -4    3.05    0.33
  -5  -6  -4    2.95    0.29
   5   6   4    2.87    0.36
   5   6   4    2.89    0.28
   5   6   4    2.56    0.30
   5   6   4    3.14    0.31
  -6  -6  -4    3.00    0.34
  -6  -6  -4    3.15    0.30
  -6  -6  -4    3.68    0.34
  -6  -6  -4    3.85    0.32
   6   6   4    3.12    0.29
   6   6   4    3.36    0.30
   6   6   4    3.30    0.40
   6   6   4    3.80    0.35
  -7  -6  -4    0.40    0.17
  -7  -6  -4    0.40    0.13
  -7  -6  -4    0.52    0.16
  -7  -6  -4    0.47    0.23
   7   6   4    0.51    0.14
   7   6   4    0.56    0.14
   7   6   4    0.46    0.22
   7   6   4    0.14    0.16
  -8  -6  -4    5.72    0.38
  -8  -6  -4    5.81    0.45
  -8  -6  -4    6.13    0.37
   8   6   4    4.92    0.56
  -9  -6  -4    2.09    0.27
  -9  -6  -4    2.40    0.38
   9   6   4    2.30    0.40
   4  -7  -4    1.33    0.32
  -4   7   4    0.98    0.29
   3  -7  -4    0.33    0.22
  -3   7   4   -0.03    0.22
   2  -7  -4    0.51    0.22
  -2   7   4    0.37    0.23
   1  -7  -4    0.11    0.20
  -1   7   4    0.15    0.22
  -1   7   4   -0.09    0.21
   0  -7  -4    3.77    0.45
   0  -7  -4    3.57    0.41
   0   7   4    3.49    0.47
   0   7   4    3.24    0.43
  -1  -7  -4   18.84    0.87
  -1  -7  -4   18.92    0.96
   1   7   4   19.00    0.83
   1   7   4   18.66    0.73
   1   7   4   19.84    0.89
  -2  -7  -4    6.75    0.50
  -2  -7  -4    6.89    0.53
   2   7   4    7.10    0.42
   2   7   4    6.78    0.53
  -3  -7  -4   47.61    1.48
  -3  -7  -4   49.24    1.51
   3   7   4   47.59    1.47
   3   7   4   49.37    1.51
   3   7   4   45.49    1.37
  -4  -7  -4   46.78    1.42
  -4  -7  -4   47.99    1.44
   4   7   4   43.35    1.33
   4   7   4   46.34    1.48
   4   7   4   49.40    1.44
   4   7   4   39.45    1.35
  -5  -7  -4   34.67    1.03
  -5  -7  -4   35.08    1.17
  -5  -7  -4   38.66    1.22
  -5  -7  -4   38.40    1.09
   5   7   4   36.27    1.31
   5   7   4   37.89    1.19
   5   7   4   35.96    1.16
  -6  -7  -4   18.83    0.74
  -6  -7  -4   19.48    0.78
  -6  -7  -4   20.32    0.71
  -6  -7  -4   20.53    0.81
   6   7   4   19.82    0.95
   6   7   4   19.66    0.76
   6   7   4   19.19    0.78
  -7  -7  -4   46.07    1.41
  -7  -7  -4   44.77    1.34
  -7  -7  -4   47.68    1.36
  -7  -7  -4   47.21    1.30
   7   7   4   37.98    1.60
   7   7   4   43.27    1.38
   7   7   4   46.11    1.29
   7   7   4   45.74    1.64
  -8  -7  -4   22.45    0.81
  -8  -7  -4   21.47    0.78
  -8  -7  -4   22.66    0.81
   8   7   4   21.71    0.81
   8   7   4   20.47    0.71
   8   7   4   20.06    0.89
   8   7   4   21.25    1.09
  -9  -7  -4   32.92    1.12
  -9  -7  -4   32.43    1.13
  -9  -7  -4   34.94    1.33
   9   7   4   34.17    1.47
   2  -8  -4    3.99    0.55
  -2   8   4    5.49    0.58
   1  -8  -4   12.48    0.79
  -1   8   4   12.20    0.81
   0   8   4   25.63    1.39
  -1  -8  -4   11.54    0.79
   1   8   4    9.37    0.53
   1   8   4   10.51    0.70
  -2  -8  -4   19.78    0.91
  -2  -8  -4   21.12    0.97
   2   8   4   20.58    0.84
   2   8   4   20.78    0.96
   2   8   4   19.15    0.78
  -3  -8  -4   30.60    1.29
  -3  -8  -4   31.62    1.22
   3   8   4   30.09    1.11
   3   8   4   31.38    1.18
   3   8   4   28.47    1.02
  -4  -8  -4   41.60    1.56
  -4  -8  -4   38.19    1.31
   4   8   4   38.45    1.34
   4   8   4   40.43    1.33
   4   8   4   31.97    1.16
  -5  -8  -4   22.14    0.91
  -5  -8  -4   23.56    1.16
   5   8   4   22.37    0.86
   5   8   4   23.08    1.02
   5   8   4   22.93    0.93
  -6  -8  -4   28.67    0.91
  -6  -8  -4   30.49    1.11
  -6  -8  -4   29.65    1.07
   6   8   4   32.21    1.30
   6   8   4   30.08    1.06
   6   8   4   27.86    1.01
  -7  -8  -4   25.53    0.96
  -7  -8  -4   23.62    0.89
  -7  -8  -4   23.06    0.92
  -7  -8  -4   26.12    0.85
   7   8   4   24.28    0.89
   7   8   4   23.26    0.92
   7   8   4   24.60    1.15
  -8  -8  -4   12.14    0.55
  -8  -8  -4   11.57    0.65
  -8  -8  -4   12.53    0.64
  -8  -8  -4   13.28    0.59
   8   8   4   11.30    0.81
   8   8   4   10.88    0.65
   8   8   4   10.96    0.54
   0  -9  -4   11.44    0.80
   0   9   4    9.41    0.78
   0   9   4    9.60    0.54
  -1  -9  -4    2.36    0.39
   1   9   4    2.53    0.34
   1   9   4    2.19    0.39
  -2  -9  -4    2.50    0.39
   2   9   4    2.57    0.41
   2   9   4    2.98    0.38
   2   9   4    2.05    0.29
  -3  -9  -4    2.67    0.38
   3   9   4    2.81    0.33
   3   9   4    3.16    0.48
   3   9   4    3.19    0.40
  -4  -9  -4    1.12    0.31
  -4  -9  -4    0.99    0.27
   4   9   4    0.39    0.20
   4   9   4    0.71    0.28
   4   9   4    0.84    0.24
  -5  -9  -4   -0.01    0.18
  -5  -9  -4   -0.29    0.19
   5   9   4    0.41    0.23
   5   9   4   -0.26    0.16
   5   9   4    0.37    0.20
  -6  -9  -4    0.22    0.21
  -6  -9  -4   -0.21    0.19
   6   9   4   -0.03    0.17
   6   9   4    0.07    0.21
   6   9   4    0.15    0.21
  -7  -9  -4    1.93    0.32
  -7  -9  -4    1.81    0.27
   7   9   4    1.66    0.35
   7   9   4    1.64    0.29
   7   9   4    0.94    0.26
  -3 -10  -4    5.09    0.58
   3  10   4    6.12    0.51
   3  10   4    5.15    0.67
  -4 -10  -4   12.69    0.81
   4  10   4   11.53    0.81
   4  10   4   12.81    0.79
   6   9  -5    0.18    0.18
  -6  -9   5   -0.19    0.17
   5   9  -5    0.14    0.19
   5   9  -5    0.19    0.18
  -5  -9   5    0.68    0.26
  -5  -9   5   -0.04    0.20
  -5  -9   5    0.39    0.21
   4   9  -5   -0.16    0.20
   4   9  -5    0.04    0.14
  -4  -9   5    0.39    0.23
  -4  -9   5    0.19    0.34
  -4  -9   5    1.17    0.27
   3   9  -5    1.01    0.19
   3   9  -5    1.07    0.33
  -3  -9   5    1.08    0.31
   2   9  -5    1.23    0.21
  -2  -9   5    1.16    0.26
   1   9  -5    8.45    0.49
   1   9  -5    8.51    0.72
   1   9  -5    8.56    0.47
   7   8  -5   10.29    0.69
  -7  -8   5    9.79    0.57
  -7  -8   5   10.99    0.53
   6   8  -5   24.28    1.01
   6   8  -5   25.56    0.93
  -6  -8   5   22.84    1.09
  -6  -8   5   26.78    1.00
  -6  -8   5   25.52    0.99
   5   8  -5   15.84    0.72
   5   8  -5   15.77    0.74
  -5  -8   5   15.19    0.78
  -5  -8   5   15.03    0.71
  -5  -8   5   15.23    0.72
   4   8  -5   19.35    0.78
   4   8  -5   20.20    0.88
  -4  -8   5   18.94    0.77
  -4  -8   5   20.67    0.92
  -4  -8   5   19.46    0.89
   3   8  -5   23.22    1.00
   3   8  -5   22.11    0.81
  -3  -8   5   23.59    1.03
   2   8  -5   15.35    0.62
   2   8  -5   15.48    0.85
  -2  -8   5   16.50    0.87
  -2  -8   5   16.59    0.88
   1   8  -5   14.10    0.62
   1   8  -5   14.78    0.86
  -1  -8   5   14.59    0.84
   0   8  -5   13.37    0.67
   0   8  -5   12.72    0.83
   0  -8   5   13.37    0.83
  -1   8  -5    6.80    0.57
  -1   8  -5    7.41    0.69
   1  -8   5    7.25    0.44
   1  -8   5    7.80    0.69
   8   7  -5   39.71    1.49
  -8  -7   5   38.58    1.08
  -8  -7   5   37.65    1.06
   7   7  -5   27.00    1.11
   7   7  -5   25.46    0.79
   7   7  -5   27.23    0.89
  -7  -7   5   25.23    0.86
   6   7  -5   21.22    0.90
   6   7  -5   18.92    0.72
   6   7  -5   18.76    0.74
  -6  -7   5   21.26    0.82
  -6  -7   5   19.72    0.77
  -6  -7   5   20.51    1.04
   5   7  -5   28.27    1.03
   5   7  -5   26.75    0.95
  -5  -7   5   26.57    1.05
  -5  -7   5   27.07    0.98
  -5  -7   5   29.07    1.03
  -5  -7   5   27.48    0.97
   4   7  -5   23.60    0.88
   4   7  -5   24.79    0.93
  -4  -7   5   26.12    0.98
  -4  -7   5   23.33    0.93
  -4  -7   5   23.94    0.85
  -4  -7   5   23.16    0.90
   3   7  -5    8.58    0.47
   3   7  -5    9.69    0.58
  -3  -7   5    9.22    0.60
  -3  -7   5    8.51    0.45
  -3  -7   5    8.46    0.57
   2   7  -5   27.89    1.08
  -2  -7   5   26.97    1.08
  -2  -7   5   25.95    1.05
   1   7  -5    0.03    0.12
   1   7  -5    0.23    0.21
  -1  -7   5   -0.14    0.15
  -1  -7   5   -0.09    0.15
   0   7  -5    0.12    0.15
   0   7  -5    0.00    0.19
   0  -7   5    0.06    0.19
  -1   7  -5    0.42    0.25
  -1   7  -5    0.31    0.19
   1  -7   5    0.82    0.35
  -2   7  -5    0.27    0.24
  -2   7  -5    0.30    0.21
   2  -7   5    0.88    0.20
   2  -7   5    0.48    0.26
  -3   7  -5    1.83    0.36
  -3   7  -5    2.50    0.46
   3  -7   5    2.38    0.41
   3  -7   5    3.25    0.34
   9   6  -5    2.53    0.45
   8   6  -5    0.86    0.29
   7   6  -5    1.40    0.29
  -7  -6   5    1.92    0.33
  -7  -6   5    1.46    0.21
  -7  -6   5    1.61    0.23
   6   6  -5    6.79    0.52
   6   6  -5    6.49    0.35
  -6  -6   5    6.88    0.43
  -6  -6   5    7.50    0.41
  -6  -6   5    7.51    0.48
   5   6  -5   -0.18    0.10
   5   6  -5   -0.20    0.12
   5   6  -5    0.09    0.11
  -5  -6   5    0.07    0.13
  -5  -6   5    0.03    0.14
  -5  -6   5    0.04    0.13
  -5  -6   5   -0.13    0.10
   4   6  -5    7.63    0.47
   4   6  -5    7.48    0.45
  -4  -6   5    7.35    0.46
  -4  -6   5    8.01    0.42
  -4  -6   5    7.72    0.49
  -4  -6   5    7.72    0.48
   3   6  -5   12.45    0.61
   3   6  -5   13.23    0.58
   3   6  -5   12.91    0.62
  -3  -6   5   12.31    0.62
  -3  -6   5   13.03    0.65
  -3  -6   5   12.77    0.57
  -3  -6   5   11.12    0.55
   2   6  -5    5.90    0.46
  -2  -6   5    5.63    0.47
  -2  -6   5    5.65    0.34
  -2  -6   5    5.25    0.44
   1   6  -5   18.24    0.64
   1   6  -5   18.91    0.84
  -1  -6   5   17.95    0.81
  -1  -6   5   18.99    0.84
   0   6  -5   40.95    1.39
   0   6  -5   43.45    1.45
   0   6  -5   43.28    1.27
   0  -6   5   43.86    1.44
   0  -6   5   41.06    1.58
  -1   6  -5   25.70    1.05
  -1   6  -5   27.36    1.00
  -1   6  -5   26.80    1.10
   1  -6   5   27.14    1.09
   1  -6   5   24.76    1.16
  -2   6  -5    4.79    0.56
  -2   6  -5    4.70    0.48
   2  -6   5    5.52    0.36
   2  -6   5    5.21    0.53
  -3   6  -5   21.38    1.03
  -3   6  -5   22.50    1.06
   3  -6   5   21.61    0.81
   3  -6   5   22.29    1.04
  -4   6  -5   13.25    0.87
  -4   6  -5   14.67    0.86
   4  -6   5   13.40    0.84
   4  -6   5   12.91    0.66
   9   5  -5    3.81    0.55
  -9  -5   5    4.03    0.27
  -9  -5   5    4.43    0.39
   8   5  -5   14.50    0.84
  -8  -5   5   12.24    0.43
   7   5  -5   30.82    1.20
  -7  -5   5   30.55    0.82
  -7  -5   5   27.79    1.09
   6   5  -5   27.71    0.75
   6   5  -5   28.72    0.77
   6   5  -5   29.28    1.10
  -6  -5   5   28.05    0.83
  -6  -5   5   23.79    1.04
  -6  -5   5   29.87    0.87
  -6  -5   5   29.05    1.02
   5   5  -5   28.07    0.84
   5   5  -5   28.33    0.86
   5   5  -5   28.17    1.03
  -5  -5   5   29.23    1.07
  -5  -5   5   30.05    0.92
  -5  -5   5   28.46    0.96
  -5  -5   5   29.54    0.90
   4   5  -5  100.68    2.50
   4   5  -5   98.00    2.39
   4   5  -5   98.02    2.40
  -4  -5   5   94.51    2.41
  -4  -5   5   99.79    2.42
  -4  -5   5  103.49    2.46
  -4  -5   5   95.67    2.51
   3   5  -5   53.26    1.48
   3   5  -5   50.61    1.44
   3   5  -5   56.29    1.48
  -3  -5   5   52.53    1.47
  -3  -5   5   52.47    1.37
  -3  -5   5   54.05    1.50
  -3  -5   5   50.67    1.47
   2   5  -5   87.43    2.25
   2   5  -5   90.38    2.27
  -2  -5   5   86.83    2.15
  -2  -5   5   89.71    2.29
  -2  -5   5   89.30    2.06
  -2  -5   5   86.58    2.26
   1   5  -5   36.09    1.16
   1   5  -5   37.05    1.19
   1   5  -5   35.84    0.98
  -1  -5   5   36.56    1.17
  -1  -5   5   35.13    0.96
  -1  -5   5   36.48    1.18
   0   5  -5   71.39    1.97
   0   5  -5   69.63    1.94
   0   5  -5   69.24    1.80
   0  -5   5   71.98    1.97
   0  -5   5   68.57    1.94
  -1   5  -5   20.01    0.85
  -1   5  -5   19.05    0.77
  -1   5  -5   16.87    0.79
   1  -5   5   19.26    0.83
   1  -5   5   18.40    0.81
   1  -5   5   18.91    0.59
  -2   5  -5   34.19    1.45
  -2   5  -5   33.84    1.23
  -2   5  -5   34.55    1.20
   2  -5   5   33.50    1.22
   2  -5   5   32.73    1.19
   2  -5   5   33.65    0.98
  -3   5  -5   31.54    1.22
  -3   5  -5   29.88    1.16
  -3   5  -5   31.40    1.21
   3  -5   5   31.35    0.99
   3  -5   5   31.43    1.20
  -4   5  -5   11.51    0.73
  -4   5  -5    9.69    0.68
   4  -5   5   10.56    0.56
   4  -5   5   10.92    0.71
  -5   5  -5   10.79    0.73
  -5   5  -5   11.50    0.83
   5  -5   5    9.80    0.60
   5  -5   5   10.90    0.72
   9   4  -5   29.40    1.32
  -9  -4   5   30.11    1.07
   8   4  -5   30.95    1.29
  -8  -4   5   31.51    1.04
   7   4  -5  127.18    3.32
  -7  -4   5  124.56    3.19
  -7  -4   5  125.90    2.97
   6   4  -5   60.86    1.83
  -6  -4   5   62.06    1.49
  -6  -4   5   62.10    1.51
  -6  -4   5   60.22    1.84
  -6  -4   5   60.67    1.47
  -6  -4   5   60.26    1.72
  -6  -4   5   59.86    1.43
   5   4  -5  129.89    3.15
   5   4  -5  123.61    2.82
  -5  -4   5  124.88    3.16
  -5  -4   5  123.69    2.88
  -5  -4   5  127.66    2.90
  -5  -4   5  123.72    3.01
   4   4  -5   36.53    1.16
   4   4  -5   36.95    1.02
   4   4  -5   37.37    1.04
  -4  -4   5   36.46    1.18
  -4  -4   5   39.78    1.08
  -4  -4   5   36.08    1.05
  -4  -4   5   38.17    1.21
   3   4  -5   28.06    0.88
   3   4  -5   28.48    0.89
   3   4  -5   31.42    0.95
  -3  -4   5   28.82    0.95
  -3  -4   5   27.81    0.89
  -3  -4   5   28.77    0.83
  -3  -4   5   30.18    0.92
   2   4  -5   15.45    0.61
   2   4  -5   16.56    0.64
  -2  -4   5   16.01    0.49
  -2  -4   5   16.50    0.65
  -2  -4   5   15.04    0.61
  -2  -4   5   16.02    0.59
   1   4  -5    7.53    0.42
   1   4  -5    7.50    0.44
   1   4  -5    7.56    0.32
  -1  -4   5    7.34    0.34
  -1  -4   5    7.96    0.45
  -1  -4   5    7.25    0.43
   0   4  -5    0.17    0.19
   0   4  -5    0.08    0.10
   0   4  -5    0.25    0.13
   0  -4   5    0.15    0.13
   0  -4   5    0.26    0.08
   0  -4   5    0.01    0.11
  -1   4  -5   18.23    0.75
  -1   4  -5   18.58    0.78
  -1   4  -5   18.84    0.74
   1  -4   5   18.46    0.76
   1  -4   5   18.37    0.54
   1  -4   5   19.23    0.78
  -2   4  -5    0.06    0.13
  -2   4  -5    0.12    0.14
  -2   4  -5   -0.02    0.14
   2  -4   5    0.03    0.13
   2  -4   5    0.23    0.10
   2  -4   5   -0.11    0.14
  -3   4  -5    6.77    0.52
  -3   4  -5    6.37    0.50
  -3   4  -5    8.01    0.55
   3  -4   5    7.38    0.40
   3  -4   5    7.19    0.52
  -4   4  -5   15.63    0.78
  -4   4  -5   17.39    0.89
  -4   4  -5   16.89    0.83
   4  -4   5   17.09    0.81
   4  -4   5   17.08    0.70
  -5   4  -5   14.36    0.86
  -5   4  -5   13.24    0.74
  -5   4  -5   15.18    0.80
   5  -4   5   14.11    0.67
   5  -4   5   14.01    0.76
  -6   4  -5    5.44    0.53
  -6   4  -5    6.06    0.65
  -6   4  -5    6.90    0.59
   6  -4   5    5.54    0.49
   6  -4   5    5.43    0.51
   9   3  -5    2.08    0.40
   9   3  -5    2.13    0.38
  -9  -3   5    1.72    0.31
   8   3  -5    4.38    0.59
   8   3  -5    2.83    0.42
  -8  -3   5    3.72    0.40
   7   3  -5    2.55    0.40
   7   3  -5    2.86    0.40
  -7  -3   5    2.82    0.33
  -7  -3   5    2.15    0.33
   6   3  -5    1.21    0.24
   6   3  -5    1.32    0.27
  -6  -3   5    1.10    0.19
  -6  -3   5    1.27    0.22
   5   3  -5    1.77    0.15
   5   3  -5    1.87    0.20
   5   3  -5    2.07    0.32
   5   3  -5    1.98    0.27
  -5  -3   5    1.88    0.25
  -5  -3   5    1.99    0.29
  -5  -3   5    2.06    0.19
  -5  -3   5    2.18    0.18
  -5  -3   5    1.65    0.23
   4   3  -5   60.73    1.67
   4   3  -5   61.04    1.48
   4   3  -5   60.47    1.47
  -4  -3   5   61.17    1.51
  -4  -3   5   60.63    1.40
  -4  -3   5   60.59    1.62
  -4  -3   5   61.67    1.52
  -4  -3   5   59.83    1.68
   3   3  -5   57.23    1.44
   3   3  -5   56.38    1.43
   3   3  -5   58.64    1.54
  -3  -3   5   56.88    1.31
  -3  -3   5   55.53    1.40
  -3  -3   5   56.73    1.45
  -3  -3   5   55.23    1.53
   2   3  -5   47.37    1.27
   2   3  -5   46.67    1.11
   2   3  -5   46.56    1.26
  -2  -3   5   48.71    1.42
  -2  -3   5   47.49    1.28
  -2  -3   5   46.81    1.13
  -2  -3   5   46.99    1.27
  -2  -3   5   48.03    1.14
   1   3  -5    1.66    0.16
   1   3  -5    1.38    0.20
   1   3  -5    1.38    0.21
  -1  -3   5    1.88    0.22
  -1  -3   5    1.43    0.17
  -1  -3   5    2.03    0.24
   0   3  -5  199.31    4.42
   0   3  -5  197.60    4.52
   0   3  -5  199.66    4.53
   0  -3   5  201.12    4.55
   0  -3   5  196.92    4.45
  -1   3  -5  106.23    2.61
  -1   3  -5  108.65    2.58
  -1   3  -5  106.67    2.63
   1  -3   5  105.18    2.61
   1  -3   5  104.72    2.34
   1  -3   5  108.79    2.64
  -2   3  -5   90.07    2.32
  -2   3  -5   89.61    2.33
  -2   3  -5   90.11    2.33
   2  -3   5   90.27    2.32
   2  -3   5   90.48    2.10
   2  -3   5   94.72    2.35
  -3   3  -5   99.14    2.59
  -3   3  -5  101.84    2.64
  -3   3  -5  101.27    2.57
   3  -3   5  103.52    2.59
   3  -3   5  100.92    2.40
   3  -3   5   98.33    2.56
  -4   3  -5   45.39    1.41
  -4   3  -5   45.59    1.52
  -4   3  -5   45.34    1.44
   4  -3   5   46.75    1.43
   4  -3   5   46.11    1.31
   4  -3   5   43.09    1.38
  -5   3  -5   56.11    1.73
  -5   3  -5   57.99    1.87
  -5   3  -5   56.54    1.69
   5  -3   5   55.58    1.69
   5  -3   5   56.07    1.63
  -6   3  -5   33.33    1.21
  -6   3  -5   34.37    1.42
  -6   3  -5   33.38    1.25
   6  -3   5   34.34    1.21
  -7   3  -5   16.08    0.84
  -7   3  -5   15.40    0.81
  -7   3  -5   16.64    1.03
   7  -3   5   15.77    0.79
   7  -3   5   16.05    1.04
   9   2  -5   11.67    0.80
   9   2  -5   11.58    0.81
  -9  -2   5   12.23    0.76
   8   2  -5   14.60    0.89
   8   2  -5   13.33    0.82
  -8  -2   5   13.66    0.74
   7   2  -5   85.64    2.49
   7   2  -5   88.17    2.45
   6   2  -5   71.11    2.02
   6   2  -5   70.84    1.96
  -6  -2   5   63.20    2.38
   5   2  -5  189.12    4.42
   5   2  -5  192.45    4.50
  -5  -2   5  187.35    4.49
  -5  -2   5  195.29    4.16
  -5  -2   5  187.00    4.16
   4   2  -5   21.27    0.73
   4   2  -5   20.11    0.59
  -4  -2   5   20.13    0.77
  -4  -2   5   21.13    0.63
  -4  -2   5   21.09    0.62
  -4  -2   5   21.33    0.63
  -4  -2   5   20.76    0.78
   3   2  -5  133.85    3.04
   3   2  -5  135.97    3.01
   3   2  -5  132.39    2.99
  -3  -2   5  132.46    2.94
  -3  -2   5  134.71    3.02
  -3  -2   5  131.45    3.00
  -3  -2   5  132.51    3.13
  -3  -2   5  131.26    3.01
   2   2  -5  206.48    4.64
   2   2  -5  210.47    4.65
   2   2  -5  208.38    4.56
   2   2  -5  217.31    4.55
  -2  -2   5  207.23    4.65
  -2  -2   5  212.97    4.67
  -2  -2   5  210.85    4.56
   1   2  -5   84.07    2.06
   1   2  -5   85.81    2.08
   1   2  -5   87.74    1.97
  -1  -2   5   86.46    2.00
  -1  -2   5   86.11    2.08
   0   2  -5  246.08    5.60
   0   2  -5  253.73    5.53
   0   2  -5  256.24    5.61
   0  -2   5  254.36    5.56
   0  -2   5  256.68    5.62
   0  -2   5  253.88    5.61
  -1   2  -5  180.21    4.06
  -1   2  -5  179.18    4.10
  -1   2  -5  178.06    4.10
   1  -2   5  180.36    4.09
  -2   2  -5   81.78    2.09
  -2   2  -5   81.38    2.35
  -2   2  -5   82.58    2.26
   2  -2   5   84.22    2.10
   2  -2   5   83.72    2.13
   2  -2   5   79.40    2.07
   2  -2   5   82.24    1.89
  -3   2  -5   31.88    1.04
  -3   2  -5   31.46    1.09
  -3   2  -5   31.14    1.05
   3  -2   5   32.28    0.86
   3  -2   5   31.70    0.91
   3  -2   5   33.61    1.05
   3  -2   5   31.53    1.01
  -4   2  -5   31.31    1.16
  -4   2  -5   32.20    1.08
  -4   2  -5   30.53    1.04
   4  -2   5   30.39    1.03
   4  -2   5   32.73    1.10
   4  -2   5   31.36    0.88
  -5   2  -5   11.40    0.60
  -5   2  -5   11.45    0.73
  -5   2  -5   12.10    0.63
   5  -2   5   12.32    0.49
   5  -2   5   12.41    0.61
   5  -2   5   11.24    0.57
   5  -2   5   12.09    0.58
  -6   2  -5   13.26    0.69
  -6   2  -5   12.21    0.65
   6  -2   5   12.37    0.64
   6  -2   5   12.21    0.55
   6  -2   5   13.08    0.67
  -7   2  -5    0.60    0.21
  -7   2  -5    0.47    0.27
  -7   2  -5    0.83    0.22
   7  -2   5    0.47    0.19
   7  -2   5    1.07    0.26
   9   1  -5   39.99    1.59
  -9  -1   5   41.63    1.58
   8   1  -5   33.23    1.37
   8   1  -5   34.35    1.36
   7   1  -5   54.06    1.75
   7   1  -5   54.59    1.78
   6   1  -5   66.07    1.91
   6   1  -5   66.40    1.94
  -6  -1   5   65.38    1.54
  -6  -1   5   61.10    2.28
  -6  -1   5   66.64    1.54
   5   1  -5   55.56    1.29
   5   1  -5   55.25    1.30
   5   1  -5   57.46    1.66
   5   1  -5   55.93    1.61
  -5  -1   5   54.89    1.62
   4   1  -5    6.96    0.42
   4   1  -5    5.44    0.26
  -4  -1   5    7.04    0.31
  -4  -1   5    7.17    0.42
  -4  -1   5    6.69    0.30
   3   1  -5   27.48    0.82
   3   1  -5   28.89    0.99
   3   1  -5   27.52    0.76
  -3  -1   5   26.85    0.76
  -3  -1   5   27.05    0.77
  -3  -1   5   26.76    0.77
   2   1  -5   14.71    0.48
   2   1  -5   15.33    0.51
  -2  -1   5   15.41    0.52
  -2  -1   5   15.36    0.52
  -2  -1   5   14.92    0.47
   1   1  -5  184.44    4.02
   1   1  -5  186.87    4.10
   1   1  -5  182.24    3.95
   1   1  -5  183.79    4.09
  -1  -1   5  184.61    4.10
  -1  -1   5  182.23    4.03
  -1  -1   5  184.37    4.10
   0   1  -5   55.88    1.43
   0   1  -5   55.92    1.37
   0   1  -5   53.91    1.41
   0  -1   5   56.04    1.39
  -1   1  -5   16.06    0.59
  -1   1  -5   16.59    0.59
   1  -1   5   20.75    0.72
   1  -1   5   16.34    0.61
   1  -1   5   16.27    0.60
  -2   1  -5    8.49    0.43
  -2   1  -5    8.46    0.43
  -2   1  -5    9.00    0.43
  -2   1  -5    8.48    0.31
   2  -1   5    8.20    0.62
   2  -1   5    8.44    0.41
   2  -1   5    8.58    0.42
  -3   1  -5   17.12    0.56
  -3   1  -5   17.25    0.70
  -3   1  -5   16.92    0.65
  -3   1  -5   16.58    0.64
   3  -1   5   17.15    0.71
   3  -1   5   16.89    0.64
   3  -1   5   16.98    0.64
  -4   1  -5    1.31    0.25
  -4   1  -5    1.84    0.25
  -4   1  -5    1.15    0.18
  -4   1  -5    1.13    0.22
   4  -1   5    1.51    0.22
   4  -1   5    1.51    0.20
   4  -1   5    1.22    0.20
   4  -1   5    1.58    0.23
  -5   1  -5   15.20    0.66
  -5   1  -5   15.57    0.80
  -5   1  -5   15.02    0.66
   5  -1   5   14.64    0.64
   5  -1   5   15.84    0.62
   5  -1   5   15.13    0.65
   5  -1   5   14.82    0.63
  -6   1  -5   23.93    1.07
  -6   1  -5   23.88    0.91
  -6   1  -5   23.18    0.88
   6  -1   5   24.34    0.93
   6  -1   5   22.89    0.85
   6  -1   5   21.72    0.83
   6  -1   5   24.58    0.85
  -7   1  -5   15.30    0.70
  -7   1  -5   15.60    0.92
  -7   1  -5   15.38    0.74
   7  -1   5   15.78    0.79
   7  -1   5   15.60    0.68
   7  -1   5   15.10    0.67
  -8   1  -5   11.56    0.86
  -8   1  -5   13.80    0.65
  -8   1  -5   11.88    0.67
   8  -1   5   11.85    0.60
   9   0  -5    5.96    0.62
  -9   0   5    5.71    0.64
   8   0  -5    0.14    0.21
  -8   0   5    0.08    0.09
   7   0  -5    4.18    0.48
   7   0  -5    4.53    0.48
  -7   0   5    4.67    0.28
  -7   0   5    4.50    0.27
   6   0  -5   15.32    0.77
   6   0  -5   16.02    0.80
  -6   0   5   15.93    0.54
  -6   0   5   15.63    0.54
  -6   0   5   13.69    0.95
   5   0  -5    9.96    0.57
   5   0  -5    9.57    0.37
   5   0  -5   10.17    0.56
  -5   0   5    9.70    0.40
  -5   0   5    9.27    0.40
  -5   0   5    9.91    0.54
   4   0  -5    1.84    0.17
   4   0  -5    1.71    0.24
   4   0  -5    1.96    0.18
   4   0  -5    1.77    0.27
  -4   0   5    1.88    0.18
   3   0  -5    6.46    0.30
   3   0  -5    6.47    0.30
   3   0  -5    6.04    0.34
   3   0  -5    6.43    0.39
  -3   0   5    6.51    0.31
  -3   0   5    6.41    0.31
   2   0  -5  183.22    4.03
   2   0  -5  182.82    4.02
  -2   0   5  183.32    4.04
  -2   0   5  183.27    4.03
  -2   0   5  177.01    4.01
   1   0  -5   67.39    1.56
   1   0  -5   62.48    1.57
   1   0  -5   64.51    1.58
  -1   0   5   64.31    1.58
  -1   0   5   65.20    1.58
  -1   0   5   63.30    1.54
   0   0  -5   67.40    1.67
   0   0  -5   68.52    1.68
   0   0  -5   69.81    1.64
   0   0   5   69.82    1.68
   0   0   5   67.13    1.67
   0   0   5   67.54    1.65
  -1   0  -5  510.35   10.98
  -1   0  -5  507.01   10.95
   1   0   5  521.78   10.98
   1   0   5  509.72   10.98
   1   0   5  513.24   10.97
  -2   0  -5  398.48    8.65
  -2   0  -5  399.03    8.68
  -2   0  -5  395.11    8.65
  -2   0  -5  399.82    8.54
   2   0   5  405.73    8.66
   2   0   5  407.91    8.72
   2   0   5  395.89    8.65
  -3   0  -5   89.94    2.30
  -3   0  -5   91.28    2.23
  -3   0  -5   93.22    2.28
  -3   0  -5   89.58    2.16
   3   0   5   91.57    2.22
   3   0   5   93.38    2.34
   3   0   5   91.61    2.22
  -4   0  -5  196.23    4.69
  -4   0  -5  192.64    4.55
  -4   0  -5  194.77    4.43
  -4   0  -5  192.13    4.44
   4   0   5  198.49    4.43
   4   0   5  194.06    4.60
   4   0   5  192.71    4.41
   4   0   5  200.07    4.42
  -5   0  -5  196.12    4.50
  -5   0  -5  191.41    4.65
  -5   0  -5  197.25    4.49
  -5   0  -5  195.63    4.47
   5   0   5  193.26    4.44
   5   0   5  197.19    4.46
   5   0   5  198.29    4.50
  -6   0  -5  110.58    2.72
  -6   0  -5  109.76    2.94
  -6   0  -5  108.39    2.69
  -6   0  -5  108.84    2.76
   6   0   5  110.81    2.76
   6   0   5  109.42    2.67
   6   0   5  107.39    2.65
  -7   0  -5   48.87    1.80
  -7   0  -5   45.66    1.37
  -7   0  -5   44.16    1.34
   7   0   5   44.26    1.30
   7   0   5   46.31    1.43
   7   0   5   43.19    1.27
  -8   0  -5   23.56    1.15
  -8   0  -5   24.36    0.88
  -8   0  -5   22.46    1.13
   8   0   5   23.76    0.98
   8   0   5   23.72    0.82
   8  -1  -5   20.57    1.07
  -8   1   5   19.79    0.70
   7  -1  -5   27.78    1.19
   7  -1  -5   26.21    0.76
   7  -1  -5   28.60    1.17
  -7   1   5   26.81    0.87
  -7   1   5   26.66    0.85
   6  -1  -5   53.81    1.66
   6  -1  -5   49.63    1.30
   6  -1  -5   52.28    1.68
  -6   1   5   46.83    1.80
  -6   1   5   51.86    1.38
  -6   1   5   52.66    1.39
   5  -1  -5  110.12    2.83
   5  -1  -5  110.67    2.56
   5  -1  -5  109.49    2.56
   5  -1  -5  110.59    2.86
  -5   1   5  108.92    2.78
  -5   1   5  112.91    2.62
  -5   1   5  109.64    2.60
   4  -1  -5  108.22    2.59
   4  -1  -5  114.30    2.79
   4  -1  -5  111.21    2.59
   4  -1  -5  112.97    2.78
  -4   1   5  111.07    2.62
  -4   1   5  113.43    2.63
   3  -1  -5  202.70    4.59
   3  -1  -5  199.11    4.42
   3  -1  -5  197.60    4.42
  -3   1   5  201.15    4.58
  -3   1   5  196.78    4.43
   2  -1  -5  262.78    5.60
   2  -1  -5  250.24    5.56
   2  -1  -5  253.86    5.56
  -2   1   5  253.33    5.58
  -2   1   5  251.15    5.58
  -2   1   5  255.33    5.57
   1  -1  -5  469.34    9.89
   1  -1  -5  463.98    9.88
  -1   1   5  455.21    9.86
  -1   1   5  457.20    9.88
   0  -1  -5   52.61    1.35
   0  -1  -5   53.18    1.35
   0  -1  -5   52.74    1.32
   0   1   5   53.27    1.35
   0   1   5   53.28    1.35
   0   1   5   51.77    1.32
  -1  -1  -5  295.26    6.51
  -1  -1  -5  299.18    6.50
  -1  -1  -5  306.35    6.52
   1   1   5  301.23    6.52
   1   1   5  295.18    6.52
  -2  -1  -5  321.85    6.94
  -2  -1  -5  315.04    6.96
  -2  -1  -5  317.70    6.94
   2   1   5  316.86    6.93
   2   1   5  317.35    6.99
   2   1   5  324.03    6.94
  -3  -1  -5   26.72    0.82
  -3  -1  -5   27.48    0.94
  -3  -1  -5   27.03    0.84
  -3  -1  -5   27.46    0.82
   3   1   5   26.90    0.90
   3   1   5   27.05    0.82
   3   1   5   26.36    0.82
  -4  -1  -5   15.12    0.66
  -4  -1  -5   15.43    0.59
  -4  -1  -5   15.87    0.59
  -4  -1  -5   15.50    0.64
   4   1   5   15.96    0.69
   4   1   5   15.30    0.57
   4   1   5   15.55    0.58
  -5  -1  -5   32.00    1.12
  -5  -1  -5   32.51    0.99
  -5  -1  -5   33.27    1.00
  -5  -1  -5   32.39    1.06
   5   1   5   31.70    0.96
   5   1   5   33.86    1.07
   5   1   5   31.98    1.15
   5   1   5   32.33    0.97
  -6  -1  -5    2.06    0.26
  -6  -1  -5    2.56    0.39
  -6  -1  -5    2.36    0.32
  -6  -1  -5    2.18    0.26
   6   1   5    2.15    0.24
   6   1   5    2.43    0.25
   6   1   5    2.47    0.32
  -7  -1  -5    0.27    0.20
  -7  -1  -5    0.36    0.14
  -7  -1  -5    0.12    0.13
  -7  -1  -5    0.00    0.17
   7   1   5   -0.04    0.11
   7   1   5    0.03    0.15
   7   1   5    0.28    0.11
  -8  -1  -5    0.17    0.15
  -8  -1  -5   -0.04    0.19
  -8  -1  -5    0.23    0.15
   8   1   5    0.01    0.08
   8   1   5    0.16    0.16
   8   1   5   -0.12    0.11
  -9  -1  -5    7.26    0.43
  -9  -1  -5    7.80    0.47
  -9  -1  -5    6.35    0.69
   9   1   5    8.17    0.63
   8  -2  -5   10.76    0.81
   8  -2  -5   10.74    0.48
  -8   2   5   12.76    0.59
  -8   2   5   11.64    0.55
   7  -2  -5    1.80    0.37
   7  -2  -5    1.58    0.20
   7  -2  -5    1.55    0.20
  -7   2   5    1.34    0.20
  -7   2   5    1.31    0.22
   6  -2  -5   57.84    1.64
   6  -2  -5   58.76    1.80
   6  -2  -5   57.68    1.86
   6  -2  -5   55.60    1.50
  -6   2   5   56.56    1.58
  -6   2   5   56.33    1.56
  -6   2   5   56.63    1.76
   5  -2  -5   36.29    1.08
   5  -2  -5   38.62    1.32
   5  -2  -5   38.44    1.27
   5  -2  -5   36.90    1.09
  -5   2   5   37.18    1.11
  -5   2   5   36.60    1.21
  -5   2   5   37.86    1.14
   4  -2  -5   18.00    0.75
   4  -2  -5   17.99    0.78
   4  -2  -5   17.93    0.65
   4  -2  -5   18.66    0.66
  -4   2   5   18.42    0.67
  -4   2   5   18.43    0.69
   3  -2  -5    6.67    0.35
   3  -2  -5    7.03    0.44
   3  -2  -5    7.07    0.38
  -3   2   5    6.99    0.37
  -3   2   5    6.92    0.39
   2  -2  -5    2.69    0.24
   2  -2  -5    3.19    0.25
   2  -2  -5    2.98    0.25
  -2   2   5    2.79    0.24
  -2   2   5    3.06    0.27
  -2   2   5    2.63    0.25
   1  -2  -5    0.13    0.11
   1  -2  -5    0.21    0.10
  -1   2   5    0.04    0.09
  -1   2   5    0.04    0.08
   0  -2  -5   12.13    0.48
   0  -2  -5   11.92    0.47
   0  -2  -5   12.16    0.48
   0   2   5   12.29    0.46
   0   2   5   12.65    0.49
   0   2   5   12.24    0.48
  -1  -2  -5    1.48    0.19
  -1  -2  -5    1.54    0.18
  -1  -2  -5    1.45    0.19
   1   2   5    1.60    0.19
   1   2   5    1.69    0.19
   1   2   5    1.51    0.19
  -2  -2  -5   46.64    1.25
  -2  -2  -5   46.54    1.25
  -2  -2  -5   46.74    1.25
   2   2   5   47.14    1.25
   2   2   5   47.25    1.28
   2   2   5   47.58    1.25
  -3  -2  -5    7.67    0.38
  -3  -2  -5    7.65    0.39
   3   2   5    8.34    0.39
   3   2   5    8.65    0.44
   3   2   5    8.36    0.38
  -4  -2  -5    0.62    0.13
  -4  -2  -5    0.64    0.13
  -4  -2  -5    0.95    0.18
  -4  -2  -5    0.53    0.15
   4   2   5    0.54    0.14
   4   2   5    0.40    0.11
   4   2   5    0.66    0.13
  -5  -2  -5   28.49    0.98
  -5  -2  -5   28.96    1.01
  -5  -2  -5   29.26    0.90
   5   2   5   29.15    1.01
   5   2   5   29.11    1.05
   5   2   5   28.15    0.87
   5   2   5   29.43    0.89
  -6  -2  -5   29.70    1.08
  -6  -2  -5   30.20    0.95
  -6  -2  -5   32.11    1.14
  -6  -2  -5   31.17    0.96
   6   2   5   31.09    0.91
   6   2   5   29.63    1.13
   6   2   5   29.80    0.91
   6   2   5   31.22    1.10
  -7  -2  -5    8.97    0.59
  -7  -2  -5    9.51    0.64
  -7  -2  -5    9.50    0.47
  -7  -2  -5   10.28    0.49
   7   2   5   10.29    0.63
   7   2   5    9.91    0.43
   7   2   5    9.14    0.41
  -8  -2  -5   34.78    1.05
  -8  -2  -5   34.71    1.06
  -8  -2  -5   35.76    1.74
   8   2   5   32.40    0.94
   8   2   5   36.06    1.32
   8   2   5   34.63    0.96
  -9  -2  -5   28.50    0.92
  -9  -2  -5   26.62    0.88
  -9  -2  -5   28.87    1.28
   9   2   5   29.21    1.22
   7  -3  -5    0.11    0.21
   7  -3  -5   -0.16    0.14
  -7   3   5   -0.08    0.17
  -7   3   5   -0.08    0.13
   6  -3  -5    0.42    0.21
   6  -3  -5    0.32    0.14
  -6   3   5    0.29    0.19
  -6   3   5    0.50    0.17
  -6   3   5    0.52    0.17
   5  -3  -5    0.17    0.13
   5  -3  -5    0.11    0.17
   5  -3  -5    0.48    0.22
   5  -3  -5    0.38    0.14
  -5   3   5    0.34    0.14
  -5   3   5    0.20    0.15
  -5   3   5    0.27    0.16
   4  -3  -5    3.24    0.31
   4  -3  -5    2.61    0.26
   4  -3  -5    1.88    0.28
  -4   3   5    2.67    0.31
  -4   3   5    2.76    0.30
   3  -3  -5   20.69    0.75
   3  -3  -5   21.49    0.76
   3  -3  -5   19.85    0.85
  -3   3   5   21.63    0.78
  -3   3   5   20.22    0.75
   2  -3  -5   63.06    1.64
   2  -3  -5   61.45    1.56
   2  -3  -5   59.17    1.61
  -2   3   5   62.34    1.65
  -2   3   5   59.57    1.61
   1  -3  -5  145.84    3.36
   1  -3  -5  146.27    3.23
   1  -3  -5  137.93    3.33
  -1   3   5  143.47    3.32
  -1   3   5  147.01    3.37
  -1   3   5  142.53    3.34
   0  -3  -5   63.85    1.64
   0  -3  -5   61.59    1.63
   0   3   5   63.46    1.64
   0   3   5   63.86    1.65
   0   3   5   62.19    1.58
  -1  -3  -5  214.05    4.72
  -1  -3  -5  212.84    4.69
   1   3   5  200.23    5.00
   1   3   5  213.90    4.73
   1   3   5  211.92    4.83
  -2  -3  -5  377.20    8.28
  -2  -3  -5  376.86    8.32
  -2  -3  -5  387.80    8.32
   2   3   5  391.28    8.32
   2   3   5  376.61    8.46
   2   3   5  386.74    8.31
  -3  -3  -5  174.58    4.05
  -3  -3  -5  179.68    4.04
  -3  -3  -5  176.67    4.03
   3   3   5  183.02    4.05
   3   3   5  177.24    4.09
   3   3   5  178.88    4.04
  -4  -3  -5   43.53    1.26
  -4  -3  -5   44.22    1.22
  -4  -3  -5   42.69    1.21
   4   3   5   42.87    1.30
   4   3   5   45.26    1.21
   4   3   5   44.23    1.21
  -5  -3  -5  165.38    3.88
  -5  -3  -5  166.40    3.77
  -5  -3  -5  159.81    3.91
  -5  -3  -5  158.80    3.75
   5   3   5  170.78    3.96
   5   3   5  161.79    3.74
   5   3   5  166.28    3.74
   5   3   5  165.88    3.94
  -6  -3  -5  134.13    3.08
  -6  -3  -5  126.45    3.28
  -6  -3  -5  128.17    3.07
  -6  -3  -5  128.10    3.28
  -6  -3  -5  134.79    3.27
   6   3   5  131.97    3.05
   6   3   5  134.59    3.33
   6   3   5  131.11    3.03
   6   3   5  131.20    3.32
  -7  -3  -5   62.27    1.83
  -7  -3  -5   60.67    1.60
  -7  -3  -5   62.24    1.59
  -7  -3  -5   59.90    1.87
   7   3   5   60.66    1.88
   7   3   5   63.49    1.88
   7   3   5   52.15    1.48
   7   3   5   60.42    1.52
  -8  -3  -5   44.37    1.51
  -8  -3  -5   41.52    1.18
  -8  -3  -5   40.18    1.18
   8   3   5   43.71    1.52
   8   3   5   40.95    1.07
   8   3   5   39.37    1.06
  -9  -3  -5   12.73    0.52
  -9  -3  -5   12.38    0.81
  -9  -3  -5   10.56    0.50
   9   3   5   12.97    0.81
   6  -4  -5   26.17    0.99
   6  -4  -5   27.03    1.24
  -6   4   5   27.85    1.03
  -6   4   5   27.86    1.07
  -6   4   5   25.22    1.00
   5  -4  -5   37.38    1.23
   5  -4  -5   37.73    1.45
  -5   4   5   36.63    1.21
  -5   4   5   37.16    1.25
  -5   4   5   40.06    1.58
   4  -4  -5   61.02    2.13
  -4   4   5   59.32    1.75
  -4   4   5   58.59    1.71
   3  -4  -5   72.69    2.08
   3  -4  -5   61.57    2.24
   3  -4  -5   67.81    2.25
  -3   4   5   66.68    1.85
  -3   4   5   69.12    1.89
   2  -4  -5  121.39    2.98
   2  -4  -5  114.20    2.89
   2  -4  -5  120.07    2.77
  -2   4   5  116.84    2.91
  -2   4   5  121.91    2.95
   1  -4  -5  114.98    2.61
   1  -4  -5  110.53    2.78
   1  -4  -5  117.34    2.82
  -1   4   5  112.71    2.79
  -1   4   5  118.75    2.83
  -1   4   5  112.46    2.75
   0  -4  -5   59.09    1.60
   0  -4  -5   60.12    1.40
   0   4   5   59.19    1.60
   0   4   5   60.47    1.63
   0   4   5   57.63    1.54
  -1  -4  -5   63.27    1.67
   1   4   5   63.08    1.66
   1   4   5   61.97    1.61
   1   4   5   62.08    1.71
  -2  -4  -5  170.97    4.31
  -2  -4  -5  174.73    4.01
  -2  -4  -5  173.45    4.01
   2   4   5  178.98    3.99
   2   4   5  176.26    4.02
   2   4   5  172.71    4.00
  -3  -4  -5   57.96    1.56
  -3  -4  -5   59.44    1.57
  -3  -4  -5   59.40    1.67
   3   4   5   59.13    1.56
   3   4   5   59.20    1.59
   3   4   5   59.12    1.57
  -4  -4  -5   48.69    1.36
  -4  -4  -5   49.11    1.35
  -4  -4  -5   50.04    1.36
   4   4   5   48.89    1.42
   4   4   5   50.29    1.35
   4   4   5   48.52    1.34
  -5  -4  -5   23.67    0.80
  -5  -4  -5   24.04    0.86
  -5  -4  -5   22.59    0.79
   5   4   5   23.17    0.78
   5   4   5   24.53    0.91
   5   4   5   24.04    0.78
  -6  -4  -5    5.37    0.36
  -6  -4  -5    6.07    0.38
  -6  -4  -5    5.89    0.44
  -6  -4  -5    5.80    0.46
  -6  -4  -5    4.74    0.52
   6   4   5    5.38    0.33
   6   4   5    5.19    0.33
   6   4   5    5.00    0.43
   6   4   5    5.35    0.48
  -7  -4  -5    7.20    0.51
  -7  -4  -5    7.07    0.39
  -7  -4  -5    6.31    0.39
  -7  -4  -5    6.79    0.52
   7   4   5    6.91    0.34
   7   4   5    6.42    0.55
   7   4   5    6.21    0.76
   7   4   5    6.50    0.35
  -8  -4  -5    1.07    0.25
  -8  -4  -5    0.86    0.17
  -8  -4  -5    1.23    0.19
   8   4   5    0.82    0.26
  -9  -4  -5    2.26    0.38
  -9  -4  -5    1.72    0.25
  -9  -4  -5    1.84    0.22
   9   4   5    2.65    0.43
   6  -5  -5    6.62    0.55
   6  -5  -5    7.81    0.69
  -6   5   5    7.75    0.60
  -6   5   5    8.27    0.55
  -6   5   5    8.70    0.64
   5  -5  -5   15.68    0.90
   5  -5  -5   15.74    0.77
  -5   5   5   15.67    0.83
  -5   5   5   14.24    0.68
  -5   5   5   15.53    0.79
   4  -5  -5   18.09    0.84
  -4   5   5   19.45    0.87
  -4   5   5   19.11    0.92
   3  -5  -5    8.01    0.55
  -3   5   5    7.21    0.57
  -3   5   5    7.15    0.51
   2  -5  -5    0.09    0.16
  -2   5   5    0.25    0.16
  -2   5   5   -0.25    0.15
   1  -5  -5    0.46    0.15
   1  -5  -5    0.49    0.11
   1  -5  -5    0.37    0.18
  -1   5   5    0.19    0.14
  -1   5   5    0.39    0.17
  -1   5   5    0.43    0.18
   0  -5  -5    3.22    0.32
   0  -5  -5    3.35    0.35
   0   5   5    3.31    0.33
   0   5   5    3.09    0.35
   0   5   5    3.14    0.28
  -1  -5  -5    0.07    0.12
  -1  -5  -5    0.30    0.11
   1   5   5    0.30    0.12
   1   5   5    0.21    0.10
   1   5   5    0.21    0.12
  -2  -5  -5    1.80    0.25
  -2  -5  -5    1.94    0.27
   2   5   5    1.85    0.25
   2   5   5    2.08    0.25
   2   5   5    1.98    0.28
  -3  -5  -5    3.57    0.29
  -3  -5  -5    4.20    0.37
  -3  -5  -5    3.60    0.33
   3   5   5    3.51    0.31
   3   5   5    3.88    0.33
   3   5   5    3.96    0.32
  -4  -5  -5   11.32    0.51
  -4  -5  -5   10.93    0.52
  -4  -5  -5   10.86    0.54
   4   5   5   10.60    0.54
   4   5   5   11.06    0.51
   4   5   5   11.38    0.53
  -5  -5  -5   44.07    1.31
  -5  -5  -5   46.04    1.32
  -5  -5  -5   45.72    1.35
  -5  -5  -5   46.27    1.32
   5   5   5   45.66    1.30
   5   5   5   44.99    1.39
   5   5   5   46.67    1.31
   5   5   5   47.19    1.49
  -6  -5  -5   42.23    1.22
  -6  -5  -5   41.27    1.26
  -6  -5  -5   40.23    1.30
  -6  -5  -5   39.79    1.20
   6   5   5   40.61    1.18
   6   5   5   40.78    1.17
   6   5   5   42.22    1.43
   6   5   5   39.66    1.32
  -7  -5  -5   42.80    1.26
  -7  -5  -5   44.66    1.26
  -7  -5  -5   41.86    1.43
  -7  -5  -5   46.25    1.39
   7   5   5   42.08    1.44
   7   5   5   42.38    1.20
   7   5   5   46.05    1.57
   7   5   5   43.40    1.19
  -8  -5  -5   33.08    1.03
  -8  -5  -5   35.99    1.24
  -8  -5  -5   35.71    1.04
   8   5   5   33.95    0.93
   8   5   5   33.00    0.94
   8   5   5   30.60    1.44
   8   5   5   36.71    1.40
  -9  -5  -5   26.51    0.84
  -9  -5  -5   25.19    0.84
  -9  -5  -5   27.35    1.42
   9   5   5   27.77    1.26
   5  -6  -5    1.15    0.32
   5  -6  -5    0.83    0.30
  -5   6   5    0.98    0.28
  -5   6   5    0.19    0.30
  -5   6   5    1.23    0.24
   4  -6  -5    4.01    0.48
  -4   6   5    4.58    0.51
  -4   6   5    4.60    0.54
   3  -6  -5   17.38    0.85
  -3   6   5   17.47    0.84
  -3   6   5   17.43    0.89
   2  -6  -5   27.18    1.07
  -2   6   5   25.48    1.32
  -2   6   5   26.34    1.09
   1  -6  -5   32.14    1.18
   1  -6  -5   35.02    1.23
  -1   6   5   33.39    1.13
  -1   6   5   35.46    1.25
  -1   6   5   35.84    1.27
   0  -6  -5   29.87    1.07
   0  -6  -5   28.21    1.21
   0   6   5   28.73    1.08
   0   6   5   28.68    0.97
   0   6   5   28.12    1.05
  -1  -6  -5   27.35    1.02
  -1  -6  -5   29.73    1.06
   1   6   5   28.11    1.05
   1   6   5   28.19    1.02
   1   6   5   28.95    0.95
  -2  -6  -5  120.32    3.09
  -2  -6  -5  127.93    3.13
   2   6   5  128.95    3.14
   2   6   5  124.40    3.01
   2   6   5  124.83    3.10
  -3  -6  -5  101.89    2.60
  -3  -6  -5   97.32    2.57
  -3  -6  -5   99.69    2.30
   3   6   5  100.44    2.52
   3   6   5  102.15    2.58
   3   6   5  104.93    2.60
  -4  -6  -5   78.29    2.08
  -4  -6  -5   77.38    2.07
  -4  -6  -5   74.63    1.89
  -4  -6  -5   77.83    1.97
   4   6   5   79.35    2.28
   4   6   5   80.48    2.07
   4   6   5   75.93    2.06
  -5  -6  -5   38.41    1.13
  -5  -6  -5   37.03    1.19
  -5  -6  -5   36.41    1.17
  -5  -6  -5   36.27    1.12
   5   6   5   38.31    1.17
   5   6   5   38.39    1.33
   5   6   5   37.25    1.21
   5   6   5   38.23    1.20
  -6  -6  -5   23.01    0.88
  -6  -6  -5   24.75    0.88
  -6  -6  -5   24.31    0.85
  -6  -6  -5   23.41    0.85
   6   6   5   24.17    0.84
   6   6   5   22.31    0.91
   6   6   5   23.30    0.83
   6   6   5   24.77    1.06
  -7  -6  -5   43.01    1.26
  -7  -6  -5   42.59    1.44
  -7  -6  -5   38.87    1.23
  -7  -6  -5   43.30    1.29
   7   6   5   41.15    1.19
   7   6   5   42.14    1.67
   7   6   5   41.36    1.38
   7   6   5   38.75    1.18
  -8  -6  -5   16.09    0.66
  -8  -6  -5   15.61    0.73
  -8  -6  -5   15.55    0.64
   8   6   5   14.87    0.57
   8   6   5   17.02    0.93
   8   6   5   15.47    0.71
   8   6   5   13.63    0.75
  -9  -6  -5   16.05    0.63
  -9  -6  -5   16.51    0.81
   9   6   5   15.65    0.95
   3  -7  -5   16.85    0.90
  -3   7   5   17.56    0.96
   2  -7  -5    6.31    0.58
  -2   7   5    7.82    0.65
   1  -7  -5   18.06    0.90
  -1   7   5   18.39    0.98
   0  -7  -5   46.82    1.54
   0   7   5   49.02    1.88
   0   7   5   46.42    1.56
   0   7   5   43.24    1.39
  -1  -7  -5   22.64    0.95
  -1  -7  -5   19.40    0.88
   1   7   5   20.99    0.91
   1   7   5   22.07    0.96
   1   7   5   20.11    0.79
  -2  -7  -5   35.07    1.24
  -2  -7  -5   35.23    1.25
   2   7   5   36.59    1.27
   2   7   5   34.94    1.13
  -3  -7  -5   47.91    1.50
  -3  -7  -5   45.31    1.46
   3   7   5   45.30    1.38
   3   7   5   48.00    1.49
  -4  -7  -5   11.84    0.43
  -4  -7  -5   12.31    0.64
  -4  -7  -5   12.29    0.66
   4   7   5   12.43    0.64
   4   7   5   12.65    0.69
   4   7   5   10.65    0.58
  -5  -7  -5   -0.04    0.14
  -5  -7  -5   -0.11    0.13
  -5  -7  -5   -0.03    0.17
  -5  -7  -5    0.08    0.12
   5   7   5   -0.12    0.12
   5   7   5   -0.05    0.12
   5   7   5   -0.11    0.13
  -6  -7  -5    7.64    0.52
  -6  -7  -5    7.16    0.44
  -6  -7  -5    8.22    0.46
  -6  -7  -5    7.69    0.57
   6   7   5    7.69    0.48
   6   7   5    7.94    0.65
   6   7   5    6.71    0.50
  -7  -7  -5    3.61    0.43
  -7  -7  -5    4.54    0.39
  -7  -7  -5    4.51    0.38
  -7  -7  -5    4.69    0.44
   7   7   5    3.76    0.43
   7   7   5    3.95    0.35
   7   7   5    4.15    0.54
  -8  -7  -5   -0.07    0.15
  -8  -7  -5    0.43    0.13
  -8  -7  -5   -0.18    0.15
   8   7   5   -0.18    0.18
   8   7   5    0.25    0.15
   2  -8  -5    3.88    0.54
  -2   8   5    4.93    0.57
   1  -8  -5    2.09    0.37
  -1   8   5    2.15    0.37
   0  -8  -5    1.50    0.32
   0   8   5    2.10    0.37
  -1  -8  -5    0.19    0.27
   1   8   5   -0.17    0.13
   1   8   5    0.11    0.20
  -2  -8  -5    3.58    0.49
  -2  -8  -5    2.70    0.51
   2   8   5    3.26    0.42
   2   8   5    3.75    0.48
  -3  -8  -5    2.28    0.39
  -3  -8  -5    1.71    0.30
   3   8   5    2.65    0.38
   3   8   5    2.06    0.28
   3   8   5    2.72    0.42
  -4  -8  -5   10.43    0.65
  -4  -8  -5   10.02    0.64
   4   8   5   10.96    0.64
   4   8   5   10.68    0.66
   4   8   5    8.32    0.56
  -5  -8  -5   13.43    0.48
  -5  -8  -5   13.77    0.73
  -5  -8  -5   15.01    0.76
   5   8   5   15.29    0.83
   5   8   5   13.98    0.73
   5   8   5   12.41    0.67
  -6  -8  -5    8.51    0.58
  -6  -8  -5    7.26    0.41
  -6  -8  -5    8.12    0.54
   6   8   5    7.02    0.53
   6   8   5    8.35    0.70
   6   8   5    7.74    0.63
  -7  -8  -5   24.57    0.87
  -7  -8  -5   23.07    0.89
  -7  -8  -5   25.60    0.99
  -7  -8  -5   23.20    0.92
   7   8   5   21.82    0.96
   7   8   5   26.35    1.19
   7   8   5   24.33    0.92
  -8  -8  -5   27.98    1.01
  -8  -8  -5   27.76    0.95
  -8  -8  -5   26.64    0.96
   8   8   5   22.91    1.03
   8   8   5   26.37    0.92
   8   8   5   27.18    1.26
   0  -9  -5   21.45    1.10
   0   9   5   20.28    1.10
  -1  -9  -5   17.75    0.97
   1   9   5   18.19    0.99
  -2  -9  -5   12.23    0.80
   2   9   5   12.31    1.09
   2   9   5   11.26    0.66
  -3  -9  -5   18.62    0.95
   3   9   5   15.77    0.78
   3   9   5   19.46    0.96
   3   9   5   18.73    0.88
  -4  -9  -5   22.95    1.10
  -4  -9  -5   24.24    1.08
   4   9   5   24.89    1.08
   4   9   5   23.34    1.19
  -5  -9  -5    6.97    0.57
  -5  -9  -5    7.08    0.58
   5   9   5    6.42    0.58
   5   9   5    6.33    0.56
  -6  -9  -5   11.49    0.72
  -6  -9  -5   11.01    0.68
   6   9   5   11.10    0.67
   6   9   5    8.94    0.64
   6   9   5   12.27    0.79
  -7  -9  -5   19.14    0.88
  -7  -9  -5   18.87    0.71
  -7  -9  -5   20.39    0.91
   7   9   5   18.32    0.87
   7   9   5   20.85    0.96
   7   9   5   20.18    1.07
   5   9  -6   18.22    0.87
   5   9  -6   18.03    0.83
  -5  -9   6   16.33    1.23
  -5  -9   6   18.33    0.92
  -5  -9   6   19.55    0.83
   4   9  -6    4.56    0.44
   4   9  -6    6.55    0.61
  -4  -9   6    6.43    0.66
  -4  -9   6    4.78    0.54
  -4  -9   6    6.32    0.43
   3   9  -6   11.00    0.58
   3   9  -6   13.09    0.84
  -3  -9   6   11.48    0.56
  -3  -9   6   12.75    0.82
   2   9  -6    3.57    0.36
   2   9  -6    4.53    0.60
  -2  -9   6    3.69    0.55
   7   8  -6    1.40    0.34
   7   8  -6    1.58    0.24
  -7  -8   6    1.66    0.25
   6   8  -6    1.39    0.30
   6   8  -6    1.40    0.25
  -6  -8   6    1.70    0.29
  -6  -8   6    1.24    0.29
  -6  -8   6    2.47    0.36
   5   8  -6    1.95    0.30
   5   8  -6    0.96    0.28
  -5  -8   6    2.41    0.34
  -5  -8   6    1.62    0.28
  -5  -8   6    1.81    0.33
   4   8  -6    0.68    0.22
   4   8  -6    0.60    0.19
  -4  -8   6    0.41    0.24
  -4  -8   6    0.47    0.22
  -4  -8   6    0.80    0.19
   3   8  -6    7.16    0.60
   3   8  -6    6.55    0.44
  -3  -8   6    6.43    0.39
  -3  -8   6    6.29    0.58
  -3  -8   6    7.04    0.58
   2   8  -6    3.92    0.50
  -2  -8   6    3.13    0.48
   1   8  -6    6.78    0.73
   1   8  -6    6.52    0.42
  -1  -8   6    7.32    0.64
   0   8  -6    1.43    0.37
   0   8  -6    1.78    0.28
   0  -8   6    1.82    0.36
  -1   8  -6    2.71    0.47
  -1   8  -6    3.15    0.45
   1  -8   6    2.20    0.28
   1  -8   6    1.50    0.36
   8   7  -6    2.16    0.38
  -8  -7   6    2.75    0.28
  -8  -7   6    2.12    0.26
   7   7  -6    7.87    0.39
   7   7  -6    6.33    0.37
   7   7  -6    7.41    0.87
  -7  -7   6    7.59    0.46
  -7  -7   6    7.80    0.45
   6   7  -6   26.50    0.91
   6   7  -6   26.18    1.08
  -6  -7   6   24.96    1.13
  -6  -7   6   27.11    0.99
  -6  -7   6   27.38    0.95
   5   7  -6   30.69    1.06
   5   7  -6   32.34    1.15
  -5  -7   6   30.57    1.03
  -5  -7   6   32.32    1.14
  -5  -7   6   30.71    1.13
  -5  -7   6   28.78    1.14
   4   7  -6   20.39    0.84
   4   7  -6   21.08    0.91
  -4  -7   6   18.90    0.82
  -4  -7   6   20.80    0.89
  -4  -7   6   20.16    0.85
  -4  -7   6   20.75    0.74
   3   7  -6   36.51    1.16
   3   7  -6   38.29    1.29
  -3  -7   6   37.00    1.33
  -3  -7   6   35.58    1.26
  -3  -7   6   36.85    1.15
  -3  -7   6   33.37    1.11
   2   7  -6   21.19    0.95
  -2  -7   6   20.85    1.16
  -2  -7   6   24.50    1.17
   1   7  -6   26.87    1.11
   1   7  -6   25.16    0.83
  -1  -7   6   28.72    1.42
  -1  -7   6   24.28    1.06
   0   7  -6   13.84    0.65
   0   7  -6   14.27    0.83
   0  -7   6   14.62    0.82
  -1   7  -6   12.74    0.69
   1  -7   6   11.92    0.77
   1  -7   6   11.70    0.51
  -2   7  -6   13.51    0.79
  -2   7  -6   13.22    0.86
   2  -7   6   12.96    0.56
   2  -7   6   13.52    0.86
   8   6  -6   28.96    1.26
   7   6  -6   34.71    1.42
  -7  -6   6   30.56    1.16
  -7  -6   6   34.22    1.01
  -7  -6   6   31.96    0.97
   6   6  -6   29.22    1.14
   6   6  -6   28.53    0.89
  -6  -6   6   29.23    0.94
  -6  -6   6   28.07    1.01
   5   6  -6   19.13    0.83
   5   6  -6   17.25    0.68
   5   6  -6   17.70    0.70
  -5  -6   6   17.98    0.73
  -5  -6   6   17.50    0.83
  -5  -6   6   18.59    0.76
  -5  -6   6   18.22    0.71
   4   6  -6   41.85    1.30
   4   6  -6   38.72    1.23
   4   6  -6   40.27    1.25
  -4  -6   6   38.21    1.28
  -4  -6   6   42.58    1.31
  -4  -6   6   40.35    1.16
   3   6  -6   13.63    0.71
   3   6  -6   12.96    0.64
   3   6  -6   15.27    0.66
  -3  -6   6   14.75    0.71
  -3  -6   6   14.52    0.68
  -3  -6   6   13.48    0.52
  -3  -6   6   14.10    0.62
   2   6  -6   23.06    0.92
  -2  -6   6   22.87    0.93
  -2  -6   6   21.37    0.66
  -2  -6   6   20.30    0.95
  -2  -6   6   20.62    0.88
   1   6  -6   21.73    0.72
   1   6  -6   23.41    0.95
  -1  -6   6   22.29    0.95
  -1  -6   6   20.60    0.65
  -1  -6   6   22.30    0.93
   0   6  -6   30.11    1.00
   0   6  -6   31.29    1.20
   0  -6   6   30.70    1.17
   0  -6   6   31.53    1.19
  -1   6  -6    3.86    0.40
  -1   6  -6    4.08    0.47
   1  -6   6    3.97    0.48
   1  -6   6    3.45    0.25
  -2   6  -6   10.63    0.66
  -2   6  -6   10.08    0.70
   2  -6   6    9.93    0.70
   2  -6   6   10.27    0.46
  -3   6  -6    1.35    0.42
  -3   6  -6    0.90    0.25
   3  -6   6    1.26    0.32
   3  -6   6    1.83    0.26
  -4   6  -6    0.84    0.28
  -4   6  -6    0.39    0.26
   4  -6   6    1.19    0.24
   4  -6   6    0.29    0.24
   9   5  -6   23.22    1.16
  -9  -5   6   23.76    0.71
   8   5  -6   24.08    1.13
   7   5  -6   13.88    0.80
  -7  -5   6   13.92    0.71
  -7  -5   6   14.33    0.52
  -7  -5   6   13.69    0.50
   6   5  -6    0.75    0.14
   6   5  -6    0.67    0.13
   6   5  -6    0.96    0.25
  -6  -5   6    0.70    0.21
  -6  -5   6    0.64    0.14
  -6  -5   6    0.71    0.16
   5   5  -6    0.01    0.10
   5   5  -6    0.13    0.15
   5   5  -6   -0.23    0.10
  -5  -5   6    0.05    0.17
  -5  -5   6   -0.02    0.12
  -5  -5   6    0.02    0.11
   4   5  -6    2.50    0.31
   4   5  -6    1.49    0.22
   4   5  -6    1.79    0.22
  -4  -5   6    1.85    0.29
  -4  -5   6    2.19    0.36
  -4  -5   6    2.25    0.29
  -4  -5   6    2.01    0.28
   3   5  -6    2.30    0.28
   3   5  -6    2.85    0.31
  -3  -5   6    2.28    0.28
  -3  -5   6    2.95    0.22
  -3  -5   6    2.71    0.32
  -3  -5   6    2.66    0.30
   2   5  -6    0.14    0.16
   2   5  -6    0.17    0.14
   2   5  -6    0.29    0.08
  -2  -5   6    0.25    0.12
  -2  -5   6    0.23    0.14
  -2  -5   6    0.41    0.20
  -2  -5   6    0.35    0.10
   1   5  -6   10.58    0.57
   1   5  -6    9.92    0.57
   1   5  -6   11.14    0.44
  -1  -5   6   10.99    0.60
  -1  -5   6   10.04    0.56
  -1  -5   6   10.41    0.43
   0   5  -6   25.68    1.29
   0   5  -6   29.10    1.06
   0  -5   6   27.10    1.03
   0  -5   6   28.05    1.05
  -1   5  -6   18.67    0.77
  -1   5  -6   19.09    0.86
  -1   5  -6   18.23    0.83
   1  -5   6   18.21    0.82
   1  -5   6   17.69    0.55
   1  -5   6   19.28    0.86
  -2   5  -6   19.44    0.91
  -2   5  -6   19.41    0.89
  -2   5  -6   20.58    0.89
   2  -5   6   19.65    0.92
   2  -5   6   19.55    0.64
  -3   5  -6   21.85    1.13
  -3   5  -6   20.27    0.93
  -3   5  -6   19.35    0.94
   3  -5   6   19.01    0.93
   3  -5   6   20.49    0.95
  -4   5  -6   18.63    0.99
  -4   5  -6   18.47    0.94
   4  -5   6   17.50    0.72
   4  -5   6   18.84    0.92
  -5   5  -6   23.33    1.19
  -5   5  -6   23.73    1.11
   5  -5   6   21.50    1.06
   5  -5   6   23.37    0.92
   9   4  -6    3.21    0.48
  -9  -4   6    2.45    0.37
  -9  -4   6    3.13    0.29
   8   4  -6    8.20    0.66
  -8  -4   6    7.13    0.36
  -8  -4   6    7.27    0.46
   7   4  -6   21.90    1.01
  -7  -4   6   19.67    0.86
  -7  -4   6   20.59    0.64
  -7  -4   6   21.22    0.74
   6   4  -6   66.97    1.98
  -6  -4   6   63.43    1.78
  -6  -4   6   68.02    1.64
  -6  -4   6   66.09    1.55
  -6  -4   6   64.91    1.81
   5   4  -6   38.90    1.04
   5   4  -6   36.62    1.01
   5   4  -6   38.43    1.27
  -5  -4   6   36.70    1.27
  -5  -4   6   38.26    1.09
  -5  -4   6   37.52    1.14
  -5  -4   6   36.98    1.07
   4   4  -6   51.31    1.49
   4   4  -6   50.32    1.35
   4   4  -6   48.13    1.32
  -4  -4   6   49.72    1.37
  -4  -4   6   50.41    1.50
  -4  -4   6   50.09    1.38
  -4  -4   6   51.48    1.39
   3   4  -6   98.11    2.43
   3   4  -6  101.96    2.47
  -3  -4   6   98.26    2.46
  -3  -4   6   99.80    2.31
  -3  -4   6  103.39    2.49
  -3  -4   6  100.93    2.51
   2   4  -6   99.02    2.22
   2   4  -6  100.88    2.47
   2   4  -6   96.93    2.44
  -2  -4   6   98.75    2.27
  -2  -4   6  103.72    2.50
  -2  -4   6   97.50    2.68
  -2  -4   6   97.47    2.20
  -2  -4   6   97.77    2.46
   1   4  -6   55.69    1.60
   1   4  -6   59.17    1.44
   1   4  -6   58.14    1.79
  -1  -4   6   58.69    1.64
  -1  -4   6   57.84    1.62
  -1  -4   6   58.69    1.48
   0   4  -6  200.97    4.78
   0   4  -6  210.11    4.83
   0   4  -6  208.69    4.65
   0  -4   6  213.12    4.84
   0  -4   6  203.55    4.53
  -1   4  -6   34.17    1.09
  -1   4  -6   33.50    1.14
   1  -4   6   36.14    1.19
   1  -4   6   32.66    1.14
  -2   4  -6   48.24    1.51
  -2   4  -6   48.85    1.54
  -2   4  -6   49.85    1.51
   2  -4   6   47.40    1.22
   2  -4   6   48.73    1.73
   2  -4   6   50.11    1.54
  -3   4  -6   38.78    1.34
  -3   4  -6   40.37    1.39
   3  -4   6   38.88    1.11
   3  -4   6   41.44    1.37
  -4   4  -6   16.69    0.89
  -4   4  -6   16.75    1.06
   4  -4   6   17.09    0.84
   4  -4   6   16.70    0.67
  -5   4  -6    5.05    0.52
  -5   4  -6    6.05    0.55
  -5   4  -6    6.35    0.64
   5  -4   6    6.50    0.54
   5  -4   6    5.96    0.44
  -6   4  -6    7.95    0.73
  -6   4  -6    9.48    0.65
  -6   4  -6    9.51    0.69
   6  -4   6    8.54    0.57
   9   3  -6   31.11    1.35
   9   3  -6   31.82    1.40
  -9  -3   6   32.03    1.21
   8   3  -6   35.00    1.42
   8   3  -6   34.81    1.57
  -8  -3   6   34.47    1.20
   7   3  -6   61.23    1.87
   7   3  -6   61.70    1.96
   6   3  -6   43.49    1.46
   6   3  -6   42.49    1.37
  -6  -3   6   44.00    1.11
  -6  -3   6   42.09    1.10
   5   3  -6   51.91    1.48
   5   3  -6   51.00    1.27
   5   3  -6   52.66    1.58
  -5  -3   6   53.40    1.34
  -5  -3   6   51.71    1.58
  -5  -3   6   50.66    1.43
  -5  -3   6   50.37    1.32
  -5  -3   6   51.31    1.27
   4   3  -6   85.57    2.12
   4   3  -6   85.29    2.05
   4   3  -6   86.27    2.07
   4   3  -6   88.86    2.26
  -4  -3   6   85.52    2.26
  -4  -3   6   85.08    2.23
  -4  -3   6   85.77    1.97
  -4  -3   6   87.52    2.10
  -4  -3   6   84.95    2.09
   3   3  -6   96.63    2.35
   3   3  -6   99.98    2.38
  -3  -3   6   97.62    2.38
  -3  -3   6   98.29    2.28
  -3  -3   6   97.64    2.46
  -3  -3   6  102.02    2.41
  -3  -3   6  101.14    2.25
   2   3  -6  142.98    3.31
   2   3  -6  143.46    3.13
   2   3  -6  139.19    3.28
  -2  -3   6  140.68    3.57
  -2  -3   6  141.67    3.17
  -2  -3   6  143.11    3.32
   1   3  -6  101.64    2.29
   1   3  -6   96.53    2.42
   1   3  -6   96.92    2.44
  -1  -3   6  100.06    2.45
  -1  -3   6  100.67    2.46
  -1  -3   6   99.95    2.34
   0   3  -6   24.54    0.77
   0   3  -6   24.44    0.90
   0  -3   6   23.27    0.84
   0  -3   6   24.39    0.86
   0  -3   6   24.34    0.80
  -1   3  -6   13.12    0.61
  -1   3  -6   14.81    0.80
  -1   3  -6   13.01    0.62
   1  -3   6   13.68    0.63
   1  -3   6   12.94    0.59
   1  -3   6   13.33    0.61
  -2   3  -6    0.84    0.19
  -2   3  -6    1.34    0.26
  -2   3  -6    0.77    0.20
   2  -3   6    1.07    0.14
   2  -3   6    0.87    0.18
   2  -3   6    0.74    0.20
  -3   3  -6   -0.17    0.14
  -3   3  -6    0.00    0.13
  -3   3  -6   -0.06    0.13
   3  -3   6    0.09    0.14
   3  -3   6    0.05    0.10
  -4   3  -6    0.67    0.19
  -4   3  -6    0.90    0.26
  -4   3  -6    0.77    0.22
   4  -3   6    1.06    0.20
   4  -3   6    0.62    0.22
  -5   3  -6   20.18    0.90
  -5   3  -6   19.63    1.15
  -5   3  -6   20.90    1.13
   5  -3   6   19.93    0.79
  -6   3  -6    0.88    0.24
  -6   3  -6    0.64    0.28
   6  -3   6    0.94    0.24
   6  -3   6    0.73    0.21
   9   2  -6   15.15    0.91
   9   2  -6   15.25    0.95
  -9  -2   6   15.42    0.87
   8   2  -6    7.53    0.64
   8   2  -6    7.92    0.63
   7   2  -6   13.38    0.74
   7   2  -6   12.11    0.75
   6   2  -6    4.20    0.44
   6   2  -6    4.20    0.41
  -6  -2   6    4.42    0.25
  -6  -2   6    4.02    0.24
   5   2  -6    2.27    0.29
   5   2  -6    2.89    0.35
   5   2  -6    2.55    0.27
   5   2  -6    2.25    0.18
  -5  -2   6    2.39    0.25
  -5  -2   6    2.71    0.22
  -5  -2   6    2.44    0.31
  -5  -2   6    2.40    0.21
   4   2  -6    1.02    0.17
   4   2  -6    0.57    0.12
   4   2  -6    0.53    0.17
   4   2  -6    0.69    0.12
  -4  -2   6    0.69    0.14
  -4  -2   6    0.47    0.15
  -4  -2   6    0.76    0.14
   3   2  -6    1.05    0.17
   3   2  -6    1.14    0.17
   3   2  -6    1.42    0.18
   3   2  -6    1.17    0.17
  -3  -2   6    0.94    0.15
  -3  -2   6    1.12    0.14
  -3  -2   6    1.10    0.16
   2   2  -6   18.66    0.56
   2   2  -6   18.61    0.54
   2   2  -6   17.96    0.64
   2   2  -6   18.80    0.64
  -2  -2   6   17.60    0.63
  -2  -2   6   17.88    0.57
  -2  -2   6   17.70    0.66
   1   2  -6    0.97    0.15
   1   2  -6    0.98    0.15
   1   2  -6    0.85    0.15
  -1  -2   6    0.80    0.14
  -1  -2   6    0.71    0.24
  -1  -2   6    1.07    0.17
   0   2  -6  181.78    4.02
   0   2  -6  176.06    4.09
   0   2  -6  179.94    4.11
   0  -2   6  181.19    4.07
   0  -2   6  178.09    4.15
  -1   2  -6   71.02    1.83
  -1   2  -6   71.26    1.79
   1  -2   6   69.60    1.83
   1  -2   6   67.08    2.14
  -2   2  -6   71.87    1.90
  -2   2  -6   72.42    1.93
  -2   2  -6   72.49    1.91
   2  -2   6   71.50    1.90
   2  -2   6   72.79    1.96
  -3   2  -6    9.26    0.51
  -3   2  -6    9.46    0.56
  -3   2  -6    9.57    0.54
   3  -2   6   10.02    0.57
   3  -2   6    9.46    0.52
  -4   2  -6   31.06    1.18
  -4   2  -6   32.03    1.12
  -4   2  -6   32.46    1.11
   4  -2   6   32.67    1.36
   4  -2   6   33.07    0.99
   4  -2   6   33.06    1.12
   4  -2   6   33.15    0.93
  -5   2  -6   32.34    1.26
  -5   2  -6   31.12    1.13
  -5   2  -6   29.62    1.10
   5  -2   6   30.98    1.03
   5  -2   6   31.34    0.93
   5  -2   6   31.86    1.11
  -6   2  -6   33.89    1.29
  -6   2  -6   33.94    1.20
  -6   2  -6   34.69    1.41
   6  -2   6   35.93    1.20
   6  -2   6   34.20    1.20
  -7   2  -6   27.53    1.29
  -7   2  -6   27.06    1.06
  -7   2  -6   25.78    1.07
   7  -2   6   25.24    1.08
   9   1  -6    3.09    0.49
   9   1  -6    2.96    0.49
   8   1  -6    8.20    0.65
   8   1  -6    8.45    0.69
   7   1  -6   16.76    0.86
   7   1  -6   17.01    0.88
  -7  -1   6   16.23    0.53
   6   1  -6   23.18    0.95
   6   1  -6   22.61    0.98
  -6  -1   6   23.59    0.69
  -6  -1   6   21.76    0.70
  -6  -1   6   21.96    0.94
   5   1  -6   59.18    1.74
   5   1  -6   59.46    1.69
   5   1  -6   57.38    1.41
  -5  -1   6   57.31    1.46
  -5  -1   6   57.37    1.71
  -5  -1   6   60.76    1.47
   4   1  -6   73.55    1.94
   4   1  -6   77.36    2.03
   4   1  -6   76.07    1.80
  -4  -1   6   76.55    1.84
  -4  -1   6   76.97    1.84
  -4  -1   6   73.75    1.86
   3   1  -6  128.42    3.00
   3   1  -6  132.17    3.09
   3   1  -6  128.83    2.96
  -3  -1   6  128.52    2.94
  -3  -1   6  129.80    2.98
   2   1  -6  271.34    5.99
   2   1  -6  274.94    5.92
  -2  -1   6  276.33    6.01
  -2  -1   6  273.34    6.00
  -2  -1   6  272.30    5.93
   1   1  -6  357.63    7.65
   1   1  -6  354.56    7.73
   1   1  -6  354.38    7.54
  -1  -1   6  353.50    7.73
  -1  -1   6  361.74    7.75
  -1  -1   6  352.81    7.67
   0   1  -6  119.17    2.81
   0   1  -6  118.67    2.71
   0   1  -6  116.02    2.77
   0  -1   6  116.86    2.74
   0  -1   6  116.14    2.77
  -1   1  -6  223.62    4.62
  -1   1  -6  171.47    4.37
  -1   1  -6  170.71    4.41
   1  -1   6  212.77    4.67
   1  -1   6  173.80    4.41
   1  -1   6  225.48    4.63
  -2   1  -6  102.19    2.54
  -2   1  -6  102.99    2.30
  -2   1  -6  102.24    2.55
   2  -1   6  103.77    2.57
   2  -1   6  100.95    2.51
   2  -1   6  104.76    2.53
  -3   1  -6   48.79    1.43
  -3   1  -6   47.21    1.38
  -3   1  -6   45.08    1.71
  -3   1  -6   48.27    1.22
   3  -1   6   48.66    1.47
   3  -1   6   47.65    1.37
   3  -1   6   48.78    1.39
  -4   1  -6   92.21    2.40
  -4   1  -6   91.24    2.55
  -4   1  -6   94.85    2.51
  -4   1  -6   99.12    2.53
   4  -1   6   94.66    2.29
   4  -1   6   91.60    2.37
   4  -1   6   95.55    2.40
   4  -1   6   93.50    2.55
  -5   1  -6   52.42    1.52
  -5   1  -6   52.58    1.68
  -5   1  -6   53.77    1.55
   5  -1   6   48.23    1.49
   5  -1   6   51.45    1.51
   5  -1   6   50.67    1.69
  -6   1  -6   64.56    1.88
  -6   1  -6   67.61    2.08
  -6   1  -6   63.18    1.84
   6  -1   6   65.96    1.78
   6  -1   6   65.93    1.84
  -7   1  -6    8.34    0.56
  -7   1  -6    8.49    0.53
  -7   1  -6    7.98    0.69
   7  -1   6    8.13    0.51
   7  -1   6    8.11    0.50
  -8   1  -6    2.83    0.47
  -8   1  -6    3.73    0.44
  -8   1  -6    3.29    0.41
   8  -1   6    2.52    0.33
   8  -1   6    2.66    0.37
   8   0  -6   32.34    1.38
   8   0  -6   34.60    1.40
  -8   0   6   32.48    0.92
   7   0  -6   38.68    1.54
   7   0  -6   38.08    1.49
  -7   0   6   35.82    1.01
  -7   0   6   34.21    1.06
   6   0  -6  111.30    2.89
   6   0  -6  105.10    2.45
   6   0  -6  106.41    2.44
   6   0  -6  109.96    2.90
  -6   0   6  107.42    2.53
  -6   0   6  108.99    2.53
  -6   0   6  104.81    2.84
   5   0  -6  105.39    2.44
   5   0  -6  108.65    2.77
   5   0  -6  104.37    2.44
   5   0  -6  105.66    2.72
  -5   0   6  105.41    2.49
  -5   0   6  105.21    2.73
  -5   0   6  106.73    2.50
   4   0  -6  114.93    2.66
   4   0  -6  113.50    2.65
   4   0  -6  117.20    2.87
   4   0  -6  114.32    2.83
  -4   0   6  117.62    2.70
  -4   0   6  114.33    2.69
   3   0  -6  154.27    3.54
   3   0  -6  161.63    3.67
   3   0  -6  159.32    3.61
   3   0  -6  157.57    3.54
  -3   0   6  157.66    3.57
  -3   0   6  156.93    3.56
  -3   0   6  151.75    3.55
   2   0  -6  202.35    4.51
   2   0  -6  198.77    4.52
  -2   0   6  200.02    4.48
  -2   0   6  205.13    4.52
  -2   0   6  207.17    4.53
   1   0  -6  136.86    3.17
   1   0  -6  135.93    3.16
   1   0  -6  141.18    3.13
  -1   0   6  136.63    3.12
  -1   0   6  138.00    3.17
  -1   0   6  138.36    3.17
   0   0  -6   19.14    0.66
   0   0  -6   19.41    0.62
   0   0   6   18.86    0.65
   0   0   6   18.91    0.66
   0   0   6   19.04    0.63
  -1   0  -6    8.60    0.42
  -1   0  -6    9.85    0.43
  -1   0  -6    9.24    0.44
   1   0   6    8.90    0.43
   1   0   6    9.57    0.44
  -2   0  -6   19.20    0.59
  -2   0  -6   20.45    0.83
   2   0   6   19.39    0.69
   2   0   6   20.00    0.71
   2   0   6   20.18    0.74
  -3   0  -6   21.63    0.76
  -3   0  -6   21.39    0.68
  -3   0  -6   21.75    0.81
  -3   0  -6   21.27    0.77
   3   0   6   22.50    0.78
   3   0   6   21.41    0.75
   3   0   6   22.43    0.84
  -4   0  -6    0.01    0.15
  -4   0  -6    0.20    0.11
  -4   0  -6    0.31    0.14
  -4   0  -6    0.17    0.14
   4   0   6    0.21    0.11
   4   0   6    0.33    0.12
   4   0   6    0.09    0.12
  -5   0  -6   27.79    1.09
  -5   0  -6   28.53    0.98
  -5   0  -6   28.83    0.97
  -5   0  -6   28.80    0.96
   5   0   6   28.39    0.94
   5   0   6   28.98    0.96
   5   0   6   26.71    1.22
   5   0   6   28.81    0.96
  -6   0  -6   39.82    1.25
  -6   0  -6   41.31    1.29
  -6   0  -6   40.81    1.47
  -6   0  -6   40.73    1.29
   6   0   6   39.95    1.23
   6   0   6   42.14    1.30
   6   0   6   41.49    1.25
  -7   0  -6   30.35    1.08
  -7   0  -6   29.78    1.04
  -7   0  -6   31.25    1.29
   7   0   6   29.87    1.01
   7   0   6   29.95    1.09
  -8   0  -6   17.35    1.00
  -8   0  -6   16.66    0.74
  -8   0  -6   16.92    0.78
   8   0   6   17.13    0.71
   8   0   6   16.71    0.82
   8  -1  -6    0.57    0.29
  -8   1   6    0.98    0.17
  -8   1   6    0.97    0.19
   7  -1  -6    0.80    0.13
   7  -1  -6    0.77    0.33
   7  -1  -6    0.72    0.25
   7  -1  -6    0.84    0.13
  -7   1   6    1.00    0.18
  -7   1   6    1.31    0.20
   6  -1  -6   10.16    0.43
   6  -1  -6   11.41    0.69
   6  -1  -6   10.01    0.43
   6  -1  -6   11.00    0.68
  -6   1   6   11.01    0.51
  -6   1   6   10.40    0.48
  -6   1   6   10.02    0.61
   5  -1  -6    4.99    0.44
   5  -1  -6    4.32    0.29
   5  -1  -6    4.39    0.29
   5  -1  -6    4.48    0.43
  -5   1   6    4.92    0.35
  -5   1   6    4.07    0.39
  -5   1   6    4.46    0.32
   4  -1  -6   10.14    0.44
   4  -1  -6   10.11    0.54
   4  -1  -6   10.64    0.55
   4  -1  -6   10.44    0.45
  -4   1   6    9.93    0.45
  -4   1   6   10.28    0.47
   3  -1  -6   48.02    1.30
   3  -1  -6   50.60    1.40
   3  -1  -6   50.02    1.31
  -3   1   6   47.58    1.34
  -3   1   6   49.69    1.32
  -3   1   6   49.90    1.33
   2  -1  -6   17.10    0.61
   2  -1  -6   16.45    0.59
   2  -1  -6   16.76    0.60
  -2   1   6   17.15    0.64
  -2   1   6   16.84    0.59
  -2   1   6   16.70    0.60
   1  -1  -6   51.20    1.35
   1  -1  -6   51.77    1.46
  -1   1   6   50.84    1.35
  -1   1   6   49.82    1.33
  -1   1   6   51.43    1.35
   0  -1  -6    4.69    0.30
   0  -1  -6    5.24    0.30
   0  -1  -6    4.72    0.29
   0   1   6    5.12    0.30
   0   1   6    4.75    0.31
   0   1   6    4.90    0.30
  -1  -1  -6    9.86    0.45
  -1  -1  -6   10.21    0.45
  -1  -1  -6   10.04    0.44
   1   1   6   11.00    0.47
   1   1   6    9.81    0.45
   1   1   6   10.47    0.46
  -2  -1  -6   65.60    1.75
  -2  -1  -6   66.13    1.72
  -2  -1  -6   65.84    1.70
   2   1   6   68.53    1.72
   2   1   6   67.71    1.71
   2   1   6   67.05    1.75
  -3  -1  -6   71.44    1.87
  -3  -1  -6   71.51    1.77
  -3  -1  -6   70.00    1.82
  -3  -1  -6   70.30    1.83
   3   1   6   70.43    1.81
   3   1   6   72.63    1.92
   3   1   6   71.66    1.82
  -4  -1  -6   62.88    1.67
  -4  -1  -6   63.87    1.69
  -4  -1  -6   62.73    1.66
  -4  -1  -6   60.69    1.74
   4   1   6   62.03    1.66
   4   1   6   64.14    1.67
   4   1   6   65.01    1.82
  -5  -1  -6  127.85    3.20
  -5  -1  -6  125.00    3.04
  -5  -1  -6  125.83    3.08
  -5  -1  -6  128.57    3.06
   5   1   6  125.72    3.02
   5   1   6  126.87    3.10
   5   1   6  124.22    3.25
   5   1   6  128.28    3.02
  -6  -1  -6  176.21    4.27
  -6  -1  -6  171.20    4.03
  -6  -1  -6  172.72    4.13
  -6  -1  -6  177.87    4.06
   6   1   6  162.71    4.29
   6   1   6  171.40    3.99
   6   1   6  169.71    3.99
   6   1   6  178.69    4.16
  -7  -1  -6   18.21    0.87
  -7  -1  -6   22.98    1.04
  -7  -1  -6   20.63    0.79
  -7  -1  -6   23.20    0.85
   7   1   6   21.83    0.92
   7   1   6   20.53    0.75
   7   1   6   21.49    0.77
  -8  -1  -6   15.76    0.69
  -8  -1  -6   16.43    0.99
  -8  -1  -6   16.97    0.95
   8   1   6   16.46    0.83
   8   1   6   16.05    0.65
   7  -2  -6    3.17    0.49
   7  -2  -6    2.61    0.28
  -7   2   6    2.66    0.30
  -7   2   6    2.85    0.42
   6  -2  -6   15.25    0.61
   6  -2  -6   15.43    0.61
   6  -2  -6   16.74    1.09
   6  -2  -6   16.04    0.83
  -6   2   6   16.57    0.70
  -6   2   6   15.15    0.65
  -6   2   6   14.39    0.75
   5  -2  -6   54.93    1.72
   5  -2  -6   53.64    1.66
   5  -2  -6   52.31    1.46
   5  -2  -6   53.98    1.46
  -5   2   6   54.94    1.52
  -5   2   6   53.54    1.50
  -5   2   6   54.27    1.63
   4  -2  -6  111.10    2.62
   4  -2  -6  108.26    2.74
   4  -2  -6  105.52    2.61
   4  -2  -6  108.09    2.78
  -4   2   6  105.92    2.63
  -4   2   6  111.33    2.67
   3  -2  -6   54.59    1.50
   3  -2  -6   58.12    1.52
   3  -2  -6   57.77    1.56
  -3   2   6   57.53    1.54
  -3   2   6   55.31    1.52
   2  -2  -6  143.34    3.30
   2  -2  -6  142.46    3.30
   2  -2  -6  143.77    3.28
  -2   2   6  141.47    3.30
  -2   2   6  137.40    3.29
  -2   2   6  142.69    3.32
   1  -2  -6  155.21    3.55
   1  -2  -6  147.89    3.53
  -1   2   6  158.22    3.58
  -1   2   6  153.03    3.52
  -1   2   6  155.89    3.55
   0  -2  -6    3.85    0.29
   0  -2  -6    3.88    0.28
   0  -2  -6    3.59    0.32
   0   2   6    4.18    0.28
   0   2   6    4.11    0.30
   0   2   6    3.52    0.26
  -1  -2  -6  373.09    8.16
  -1  -2  -6  369.92    8.14
  -1  -2  -6  378.26    8.12
   1   2   6  380.99    8.17
   1   2   6  369.98    8.15
  -2  -2  -6  217.43    5.11
  -2  -2  -6  205.32    4.74
   2   2   6  210.85    4.75
   2   2   6  211.05    4.79
   2   2   6  212.74    4.76
  -3  -2  -6  233.34    5.24
  -3  -2  -6  236.38    5.27
  -3  -2  -6  232.27    5.23
   3   2   6  231.33    5.23
   3   2   6  237.30    5.23
   3   2   6  233.11    5.32
  -4  -2  -6  105.88    2.60
  -4  -2  -6  104.02    2.56
  -4  -2  -6  106.45    2.63
  -4  -2  -6  104.97    2.56
   4   2   6  106.59    2.55
   4   2   6  105.95    2.56
   4   2   6  105.09    2.69
  -5  -2  -6   46.83    1.42
  -5  -2  -6   49.02    1.36
  -5  -2  -6   47.01    1.46
   5   2   6   49.43    1.46
   5   2   6   46.82    1.51
   5   2   6   48.20    1.33
   5   2   6   47.33    1.34
  -6  -2  -6   26.15    0.90
  -6  -2  -6   26.18    0.99
  -6  -2  -6   26.65    1.04
  -6  -2  -6   26.08    0.89
   6   2   6   27.53    1.02
   6   2   6   25.05    0.86
   6   2   6   25.41    0.85
   6   2   6   24.53    1.09
  -7  -2  -6    9.76    0.66
  -7  -2  -6   13.04    0.75
  -7  -2  -6   12.13    0.56
  -7  -2  -6   12.05    0.57
   7   2   6   11.40    0.60
   7   2   6   12.29    0.52
   7   2   6   12.63    0.70
  -8  -2  -6    4.82    0.38
  -8  -2  -6    4.22    0.54
  -8  -2  -6    4.56    0.36
   8   2   6    5.43    0.52
   8   2   6    4.26    0.32
   8   2   6    4.93    0.33
  -9  -2  -6    3.14    0.35
  -9  -2  -6    3.24    0.32
  -9  -2  -6    3.47    0.55
   9   2   6    2.82    0.41
   7  -3  -6   25.87    1.24
   7  -3  -6   24.87    0.90
  -7   3   6   25.97    0.96
  -7   3   6   25.70    0.99
   6  -3  -6   51.51    1.78
   6  -3  -6   47.71    1.41
  -6   3   6   48.28    1.76
  -6   3   6   46.58    1.68
  -6   3   6   47.12    1.52
   5  -3  -6   79.64    2.18
   5  -3  -6   77.57    2.28
   5  -3  -6   78.72    2.04
  -5   3   6   76.51    2.24
  -5   3   6   68.89    2.49
  -5   3   6   78.75    2.09
   4  -3  -6   42.84    1.35
   4  -3  -6   43.00    1.43
   4  -3  -6   44.74    1.31
  -4   3   6   44.34    1.34
  -4   3   6   43.04    1.63
   3  -3  -6    4.40    0.33
   3  -3  -6    4.47    0.35
   3  -3  -6    3.75    0.32
  -3   3   6    4.06    0.36
   2  -3  -6   39.61    1.16
   2  -3  -6   38.45    1.10
   2  -3  -6   36.31    1.13
  -2   3   6   37.60    1.14
  -2   3   6   36.93    1.28
  -2   3   6   38.12    1.17
   1  -3  -6  113.47    2.83
   1  -3  -6  121.30    2.73
   1  -3  -6  120.52    2.85
  -1   3   6  116.53    2.85
  -1   3   6  122.48    2.88
  -1   3   6  115.43    2.81
   0  -3  -6   48.86    1.36
   0  -3  -6   47.19    1.34
   0   3   6   49.56    1.36
   0   3   6   48.53    1.36
   0   3   6   48.24    1.31
  -1  -3  -6   19.76    0.77
   1   3   6   19.79    0.71
   1   3   6   17.91    0.68
   1   3   6   19.24    0.68
  -2  -3  -6    3.93    0.29
  -2  -3  -6    4.45    0.31
  -2  -3  -6    4.29    0.32
   2   3   6    3.96    0.30
   2   3   6    4.60    0.33
   2   3   6    3.95    0.30
  -3  -3  -6   38.53    1.15
  -3  -3  -6   41.17    1.17
  -3  -3  -6   38.29    1.15
   3   3   6   38.56    1.15
   3   3   6   39.93    1.20
   3   3   6   41.43    1.17
  -4  -3  -6   13.00    0.56
  -4  -3  -6   14.00    0.61
  -4  -3  -6   13.38    0.57
   4   3   6   14.03    0.57
   4   3   6   13.71    0.64
   4   3   6   13.10    0.55
  -5  -3  -6    5.93    0.43
  -5  -3  -6    5.09    0.42
  -5  -3  -6    5.23    0.36
  -5  -3  -6    5.88    0.38
   5   3   6    5.49    0.36
   5   3   6    4.68    0.41
   5   3   6    5.49    0.36
  -6  -3  -6   52.39    1.46
  -6  -3  -6   50.80    1.65
  -6  -3  -6   50.07    1.45
  -6  -3  -6   54.37    1.61
   6   3   6   53.68    1.75
   6   3   6   50.30    1.42
   6   3   6   50.99    1.41
   6   3   6   53.14    1.64
  -7  -3  -6    7.63    0.46
  -7  -3  -6    7.08    0.43
  -7  -3  -6    7.99    0.58
   7   3   6    7.22    0.43
   7   3   6    7.54    0.40
   7   3   6    7.91    0.58
  -8  -3  -6    3.65    0.35
  -8  -3  -6    2.46    0.43
  -8  -3  -6    3.69    0.34
   8   3   6    3.41    0.62
   8   3   6    2.98    0.28
  -9  -3  -6   28.55    1.25
  -9  -3  -6   24.96    1.15
  -9  -3  -6   27.31    0.90
   9   3   6   29.91    1.27
   6  -4  -6    0.44    0.23
   6  -4  -6    0.25    0.17
  -6   4   6    0.63    0.24
  -6   4   6    0.49    0.19
   5  -4  -6    0.56    0.27
   5  -4  -6    0.36    0.29
  -5   4   6    0.47    0.23
  -5   4   6    0.49    0.20
  -5   4   6    0.63    0.18
   4  -4  -6    4.16    0.40
   4  -4  -6    3.92    0.39
  -4   4   6    4.38    0.44
  -4   4   6    4.24    0.40
   3  -4  -6    0.08    0.11
   3  -4  -6    0.02    0.14
   3  -4  -6    0.02    0.12
  -3   4   6   -0.08    0.12
  -3   4   6   -0.06    0.13
   2  -4  -6    3.94    0.38
   2  -4  -6    4.13    0.31
   2  -4  -6    3.87    0.34
  -2   4   6    3.64    0.35
  -2   4   6    3.52    0.35
  -2   4   6    3.48    0.37
   1  -4  -6    6.48    0.33
   1  -4  -6    7.09    0.45
   1  -4  -6    6.86    0.42
  -1   4   6    6.61    0.40
  -1   4   6    6.55    0.43
  -1   4   6    6.33    0.44
   0  -4  -6    0.88    0.18
   0  -4  -6    1.14    0.19
   0   4   6    1.33    0.22
   0   4   6    0.84    0.16
   0   4   6    0.92    0.17
  -1  -4  -6  135.77    3.20
   1   4   6  131.96    3.13
   1   4   6  132.43    3.19
  -2  -4  -6  154.89    3.74
  -2  -4  -6  159.12    3.70
  -2  -4  -6  163.08    3.77
   2   4   6  160.55    3.75
   2   4   6  163.81    3.75
   2   4   6  162.09    3.77
  -3  -4  -6  143.99    3.42
  -3  -4  -6  146.03    3.39
  -3  -4  -6  143.94    3.48
   3   4   6  145.42    3.42
   3   4   6  145.43    3.45
   3   4   6  144.69    3.42
  -4  -4  -6   81.81    2.09
  -4  -4  -6   82.26    2.09
  -4  -4  -6   80.81    2.08
   4   4   6   80.67    2.16
   4   4   6   81.02    2.08
   4   4   6   82.69    2.08
  -5  -4  -6   70.53    1.88
  -5  -4  -6   71.57    1.93
  -5  -4  -6   73.42    1.89
   5   4   6   71.77    1.87
   5   4   6   70.96    2.01
   5   4   6   71.79    1.86
  -6  -4  -6  110.64    2.65
  -6  -4  -6  107.26    2.65
  -6  -4  -6  110.04    2.77
  -6  -4  -6  102.91    2.82
   6   4   6  105.10    2.84
   6   4   6  106.67    2.62
   6   4   6  111.83    2.91
   6   4   6  108.05    2.61
  -7  -4  -6   92.19    2.79
  -7  -4  -6   96.46    2.53
  -7  -4  -6   90.90    2.33
  -7  -4  -6   95.39    2.34
   7   4   6   89.18    2.62
   7   4   6   89.64    2.60
   7   4   6   93.55    2.27
   7   4   6   94.01    2.64
  -8  -4  -6   38.61    1.20
  -8  -4  -6   41.15    1.43
  -8  -4  -6   41.72    1.20
   8   4   6   40.94    1.51
   8   4   6   37.25    1.10
  -9  -4  -6   38.37    1.20
  -9  -4  -6   37.24    1.14
  -9  -4  -6   39.87    1.48
   9   4   6   39.25    1.55
   5  -5  -6   13.36    0.72
   5  -5  -6   12.47    0.82
  -5   5   6   13.33    0.78
  -5   5   6   12.47    0.67
  -5   5   6   14.28    0.78
   4  -5  -6   20.06    0.88
  -4   5   6   19.80    0.89
  -4   5   6   20.46    0.95
   3  -5  -6   33.68    1.18
  -3   5   6   33.32    1.22
  -3   5   6   31.70    1.17
   2  -5  -6   39.18    1.26
   2  -5  -6   38.73    1.06
  -2   5   6   36.58    1.23
  -2   5   6   37.01    1.26
  -2   5   6   30.18    1.14
   1  -5  -6  119.77    2.94
   1  -5  -6  106.00    3.07
   1  -5  -6  115.44    2.65
  -1   5   6  121.59    2.97
  -1   5   6  113.06    2.85
  -1   5   6  116.14    2.92
   0  -5  -6   94.89    2.15
   0  -5  -6   97.26    2.47
   0  -5  -6   91.43    2.43
   0   5   6   93.22    2.43
   0   5   6   94.66    2.47
   0   5   6   92.78    2.36
  -1  -5  -6   60.73    1.70
  -1  -5  -6   56.03    1.65
   1   5   6   59.56    1.68
   1   5   6   60.88    1.70
   1   5   6   59.52    1.61
  -2  -5  -6  103.59    2.60
  -2  -5  -6  101.79    2.59
   2   5   6   99.49    2.57
   2   5   6  103.61    2.61
   2   5   6  103.74    2.55
  -3  -5  -6   38.19    1.22
  -3  -5  -6   39.03    1.24
  -3  -5  -6   40.41    1.19
   3   5   6   40.60    1.23
   3   5   6   39.56    1.22
   3   5   6   41.70    1.61
  -4  -5  -6   18.15    0.76
  -4  -5  -6   18.75    0.75
  -4  -5  -6   20.33    0.74
   4   5   6   18.11    0.77
   4   5   6   18.82    0.74
   4   5   6   17.59    0.71
  -5  -5  -6   26.19    0.92
  -5  -5  -6   25.54    0.91
  -5  -5  -6   26.76    0.92
   5   5   6   26.92    0.91
   5   5   6   26.08    1.04
   5   5   6   25.44    0.98
   5   5   6   25.76    0.90
  -6  -5  -6   22.73    0.84
  -6  -5  -6   23.95    0.89
  -6  -5  -6   23.37    0.92
  -6  -5  -6   23.15    0.85
   6   5   6   22.83    0.84
   6   5   6   22.78    0.81
   6   5   6   21.48    0.93
   6   5   6   23.14    1.02
  -7  -5  -6   16.68    0.69
  -7  -5  -6   17.25    0.71
  -7  -5  -6   17.28    0.79
  -7  -5  -6   16.42    0.81
   7   5   6   16.41    0.64
   7   5   6   16.61    0.66
   7   5   6   16.12    1.07
   7   5   6   15.51    0.81
  -8  -5  -6    6.28    0.40
  -8  -5  -6    6.62    0.44
  -8  -5  -6    6.52    0.54
   8   5   6    6.44    0.36
   8   5   6    6.60    0.62
  -9  -5  -6   -0.28    0.20
  -9  -5  -6   -0.07    0.13
  -9  -5  -6   -0.06    0.23
   9   5   6   -0.42    0.17
   4  -6  -6    8.69    0.63
  -4   6   6    7.92    0.64
  -4   6   6    9.35    0.67
   3  -6  -6   19.60    0.93
  -3   6   6   19.44    0.91
  -3   6   6   20.68    0.99
   2  -6  -6    6.66    0.54
  -2   6   6    6.42    0.56
  -2   6   6    5.38    0.50
   1  -6  -6    5.31    0.68
   1  -6  -6    6.12    0.51
  -1   6   6    5.37    0.49
  -1   6   6    5.68    0.53
   0  -6  -6   22.89    0.95
   0  -6  -6   21.83    0.91
   0   6   6   23.86    0.97
   0   6   6   21.89    0.99
  -1  -6  -6   -0.17    0.11
  -1  -6  -6    0.11    0.15
   1   6   6   -0.05    0.16
   1   6   6   -0.06    0.15
   1   6   6    0.08    0.11
  -2  -6  -6    1.81    0.26
  -2  -6  -6    1.72    0.24
   2   6   6    1.63    0.26
   2   6   6    2.21    0.28
   2   6   6    1.70    0.27
  -3  -6  -6    0.06    0.13
  -3  -6  -6   -0.27    0.14
   3   6   6    0.10    0.12
   3   6   6   -0.07    0.13
  -4  -6  -6    0.92    0.20
  -4  -6  -6    1.26    0.21
  -4  -6  -6    1.03    0.16
  -4  -6  -6    0.71    0.19
   4   6   6    1.14    0.23
   4   6   6    1.06    0.23
   4   6   6    1.37    0.22
  -5  -6  -6    0.98    0.19
  -5  -6  -6    0.90    0.18
  -5  -6  -6    0.90    0.18
  -5  -6  -6    1.00    0.20
   5   6   6    0.60    0.19
   5   6   6    0.77    0.18
   5   6   6    0.64    0.18
   5   6   6    0.79    0.21
  -6  -6  -6    1.46    0.23
  -6  -6  -6    1.70    0.26
  -6  -6  -6    1.57    0.25
  -6  -6  -6    1.55    0.24
   6   6   6    1.88    0.33
   6   6   6    1.19    0.24
   6   6   6    1.55    0.23
  -7  -6  -6    8.41    0.51
  -7  -6  -6    8.27    0.54
  -7  -6  -6    7.76    0.48
  -7  -6  -6    9.79    0.57
   7   6   6    7.20    0.58
   7   6   6    8.14    0.46
   7   6   6    8.77    0.67
  -8  -6  -6    8.27    0.56
  -8  -6  -6    7.15    0.68
  -8  -6  -6    7.73    0.46
   8   6   6    8.26    0.44
   8   6   6    8.13    0.70
  -9  -6  -6   15.19    0.81
  -9  -6  -6   15.42    0.66
   9   6   6   15.50    0.96
   3  -7  -6    0.51    0.28
  -3   7   6    0.72    0.28
   2  -7  -6    2.00    0.34
  -2   7   6    1.45    0.34
   1  -7  -6    7.57    0.62
  -1   7   6    7.78    0.64
   0  -7  -6    6.76    0.57
   0   7   6    6.57    0.59
  -1  -7  -6   18.26    0.87
  -1  -7  -6   19.80    0.91
   1   7   6   21.40    0.94
   1   7   6   18.29    0.78
  -2  -7  -6   38.35    1.47
  -2  -7  -6   39.47    1.36
   2   7   6   37.59    1.25
   2   7   6   39.05    1.36
  -3  -7  -6   41.18    1.37
  -3  -7  -6   38.72    1.32
   3   7   6   39.63    1.34
   3   7   6   37.16    1.25
  -4  -7  -6   56.87    1.71
  -4  -7  -6   55.07    1.42
  -4  -7  -6   59.73    1.75
   4   7   6   58.68    1.72
   4   7   6   53.93    1.66
  -5  -7  -6   36.48    1.15
  -5  -7  -6   36.16    1.24
  -5  -7  -6   35.18    1.06
  -5  -7  -6   33.60    1.19
   5   7   6   36.09    1.35
   5   7   6   36.78    1.21
   5   7   6   32.80    1.21
  -6  -7  -6   52.65    1.53
  -6  -7  -6   53.66    2.02
  -6  -7  -6   54.43    1.54
  -6  -7  -6   51.60    1.59
   6   7   6   53.47    1.80
   6   7   6   53.86    1.57
   6   7   6   50.09    1.83
  -7  -7  -6   68.78    1.89
  -7  -7  -6   69.17    2.02
  -7  -7  -6   69.38    1.94
   7   7   6   67.38    1.86
   7   7   6   69.65    2.22
   7   7   6   65.26    2.02
  -8  -7  -6   45.52    1.42
  -8  -7  -6   46.63    1.41
  -8  -7  -6   43.63    1.38
   8   7   6   43.71    1.31
   8   7   6   46.24    1.75
   2  -8  -6   16.43    0.94
  -2   8   6   17.82    1.00
   1  -8  -6   16.67    0.95
  -1   8   6   18.07    0.98
   0  -8  -6   22.69    1.08
   0   8   6   23.12    1.10
  -1  -8  -6   18.60    0.94
   1   8   6   19.45    1.01
  -2  -8  -6   12.72    0.76
   2   8   6   11.03    0.64
   2   8   6   13.89    0.80
  -3  -8  -6   23.02    1.00
  -3  -8  -6   21.18    0.96
   3   8   6   23.24    1.01
   3   8   6   20.11    0.89
  -4  -8  -6   18.03    1.20
  -4  -8  -6   19.07    0.90
   4   8   6   19.98    0.91
   4   8   6   20.46    0.94
   4   8   6   17.04    1.02
  -5  -8  -6   10.88    0.43
  -5  -8  -6   11.07    0.65
  -5  -8  -6   10.65    0.67
   5   8   6    7.95    0.91
   5   8   6   10.86    0.72
   5   8   6   11.77    0.67
  -6  -8  -6    7.85    0.58
  -6  -8  -6    8.14    0.55
  -6  -8  -6    8.01    0.42
  -6  -8  -6    7.85    0.50
   6   8   6    8.19    0.55
   6   8   6    8.20    0.56
  -7  -8  -6   11.99    0.60
  -7  -8  -6   11.85    0.60
  -7  -8  -6   12.66    0.64
  -7  -8  -6   11.89    0.68
   7   8   6   11.32    0.80
   7   8   6   10.68    0.63
   7   8   6    8.89    0.67
   0  -9  -6    2.31    0.43
   0   9   6    2.27    0.40
  -1  -9  -6   -0.16    0.22
   1   9   6    0.17    0.26
  -2  -9  -6    0.22    0.24
   2   9   6    0.26    0.26
  -3  -9  -6    0.96    0.28
   3   9   6    0.63    0.26
   3   9   6    0.79    0.30
  -4  -9  -6    0.89    0.27
   4   9   6    0.98    0.27
   4   9   6    1.06    0.30
   4   9   6    0.35    0.27
  -5  -9  -6    0.64    0.28
  -5  -9  -6    0.87    0.25
   5   9   6    0.76    0.24
   5   9   6    1.09    0.29
   5   9   6    0.34    0.25
  -6  -9  -6    1.68    0.51
  -6  -9  -6    1.83    0.32
   6   9   6    1.79    0.35
   6   9   6    1.47    0.32
   6   9   6    1.38    0.31
   6   8  -7   21.77    0.89
  -6  -8   7   21.07    0.90
  -6  -8   7   22.50    0.98
  -6  -8   7   22.92    0.92
   5   8  -7   20.99    0.94
   5   8  -7   20.94    0.89
  -5  -8   7   19.57    0.78
  -5  -8   7   20.63    0.93
  -5  -8   7   22.64    0.99
   4   8  -7    7.90    0.58
   4   8  -7    7.45    0.54
  -4  -8   7    6.45    0.62
  -4  -8   7    7.35    0.60
  -4  -8   7    6.70    0.67
  -4  -8   7    7.75    0.42
   3   8  -7   12.36    0.77
   3   8  -7   11.82    0.62
  -3  -8   7   12.08    0.78
  -3  -8   7   11.13    0.75
   2   8  -7    5.16    0.58
  -2  -8   7    6.10    0.61
   1   8  -7    9.62    0.73
   1   8  -7    8.01    0.44
  -1  -8   7    9.78    0.72
   0   8  -7    2.22    0.30
   0   8  -7    1.87    0.34
   0  -8   7    2.45    0.40
   7   7  -7    7.30    0.54
   7   7  -7    8.64    0.67
  -7  -7   7    7.72    0.49
  -7  -7   7    8.40    0.45
   6   7  -7    1.51    0.31
   6   7  -7    1.82    0.27
  -6  -7   7    2.15    0.29
  -6  -7   7    1.69    0.25
   5   7  -7   16.57    0.75
   5   7  -7   18.17    0.85
  -5  -7   7   18.18    0.83
  -5  -7   7   15.83    0.67
  -5  -7   7   16.95    0.78
   4   7  -7    6.18    0.49
   4   7  -7    5.78    0.48
  -4  -7   7    5.67    0.35
  -4  -7   7    5.21    0.42
  -4  -7   7    6.18    0.48
  -4  -7   7    6.35    0.53
   3   7  -7   -0.11    0.12
   3   7  -7   -0.17    0.13
  -3  -7   7    0.05    0.18
  -3  -7   7   -0.25    0.12
  -3  -7   7    0.14    0.10
  -3  -7   7    0.01    0.18
   2   7  -7    1.23    0.27
  -2  -7   7    0.89    0.19
  -2  -7   7    1.26    0.32
  -2  -7   7    1.39    0.26
   1   7  -7   -0.08    0.21
   1   7  -7   -0.06    0.21
  -1  -7   7    0.15    0.22
   0   7  -7    0.80    0.20
   0   7  -7    0.56    0.31
   0  -7   7    0.74    0.27
  -1   7  -7    2.50    0.41
  -1   7  -7    2.05    0.32
   1  -7   7    2.14    0.39
  -2   7  -7    9.01    0.84
   2  -7   7    8.21    0.73
   8   6  -7    0.30    0.26
  -8  -6   7    0.65    0.13
   7   6  -7    1.25    0.32
  -7  -6   7    1.85    0.25
  -7  -6   7    1.80    0.29
  -7  -6   7    1.84    0.27
   6   6  -7   19.53    0.71
   6   6  -7   21.85    0.99
   6   6  -7   20.37    0.74
  -6  -6   7   22.13    0.82
  -6  -6   7   19.83    0.81
  -6  -6   7   21.52    0.79
   5   6  -7    3.15    0.39
   5   6  -7    3.35    0.32
  -5  -6   7    2.99    0.29
  -5  -6   7    3.75    0.36
  -5  -6   7    3.04    0.40
   4   6  -7    0.06    0.13
   4   6  -7   -0.05    0.12
  -4  -6   7    0.06    0.14
  -4  -6   7   -0.09    0.14
  -4  -6   7    0.14    0.13
  -4  -6   7    0.17    0.18
   3   6  -7   34.22    1.17
  -3  -6   7   35.72    1.23
  -3  -6   7   33.28    1.18
  -3  -6   7   33.58    0.92
  -3  -6   7   33.04    1.10
   2   6  -7   25.31    1.01
  -2  -6   7   24.55    1.00
  -2  -6   7   23.17    0.82
  -2  -6   7   25.82    1.03
   1   6  -7   43.53    1.18
   1   6  -7   44.55    1.48
  -1  -6   7   40.80    1.13
  -1  -6   7   41.88    1.70
  -1  -6   7   44.33    1.49
   0   6  -7   34.50    1.31
   0   6  -7   35.90    1.12
   0  -6   7   34.12    1.29
   0  -6   7   35.18    1.33
  -1   6  -7   29.91    1.08
  -1   6  -7   29.72    1.22
   1  -6   7   30.90    1.24
  -2   6  -7   21.33    1.05
  -2   6  -7   22.13    0.98
  -3   6  -7   22.87    1.08
  -3   6  -7   25.51    1.18
   3  -6   7   22.91    1.06
   3  -6   7   24.71    1.14
   8   5  -7   20.56    1.07
   7   5  -7   46.84    1.65
  -7  -5   7   42.78    1.24
  -7  -5   7   44.23    1.43
  -7  -5   7   46.65    1.25
   6   5  -7   32.32    1.24
   6   5  -7   29.78    0.88
  -6  -5   7   30.09    1.03
  -6  -5   7   30.33    0.96
  -6  -5   7   31.96    1.00
   5   5  -7   60.45    1.69
   5   5  -7   67.52    1.93
   5   5  -7   64.11    1.70
  -5  -5   7   62.57    1.69
  -5  -5   7   65.11    1.75
  -5  -5   7   64.16    1.73
  -5  -5   7   63.35    1.91
   4   5  -7   41.10    1.23
   4   5  -7   41.37    1.32
   4   5  -7   38.96    1.56
  -4  -5   7   38.82    1.11
  -4  -5   7   40.11    1.24
  -4  -5   7   38.71    1.30
   3   5  -7   38.99    1.27
   3   5  -7   40.54    1.27
  -3  -5   7   42.05    1.31
  -3  -5   7   39.99    1.04
  -3  -5   7   40.94    1.28
  -3  -5   7   39.28    1.25
   2   5  -7   66.09    1.86
   2   5  -7   63.13    1.82
   2   5  -7   68.25    1.56
  -2  -5   7   66.15    1.88
  -2  -5   7   65.68    1.74
  -2  -5   7   63.32    1.85
   1   5  -7   19.77    0.65
   1   5  -7   19.25    0.84
  -1  -5   7   19.84    0.86
  -1  -5   7   18.33    0.65
  -1  -5   7   18.96    0.83
   0   5  -7   27.26    1.05
   0   5  -7   29.91    0.94
   0  -5   7   28.27    1.08
   0  -5   7   28.06    0.78
  -1   5  -7    5.27    0.49
  -1   5  -7    4.93    0.48
  -1   5  -7    4.38    0.40
   1  -5   7    4.95    0.48
   1  -5   7    4.55    0.45
  -2   5  -7    0.27    0.22
  -2   5  -7    0.43    0.22
  -2   5  -7    0.41    0.21
   2  -5   7    0.36    0.20
  -3   5  -7   11.94    0.75
  -3   5  -7   12.47    0.77
   3  -5   7   13.24    0.79
   3  -5   7   11.78    0.49
  -4   5  -7    1.55    0.33
  -4   5  -7    1.25    0.33
   4  -5   7    2.27    0.28
   4  -5   7    1.66    0.33
   9   4  -7   19.78    1.08
  -9  -4   7   19.42    0.83
  -9  -4   7   19.63    0.71
   8   4  -7   21.72    1.09
  -8  -4   7   19.64    0.68
  -8  -4   7   21.25    0.81
   7   4  -7   24.83    1.30
  -7  -4   7   22.20    0.84
  -7  -4   7   23.15    0.70
  -7  -4   7   23.86    0.71
   6   4  -7    0.79    0.12
   6   4  -7    1.03    0.28
   6   4  -7    0.92    0.13
  -6  -4   7    0.74    0.14
  -6  -4   7    0.81    0.13
  -6  -4   7    0.93    0.17
  -6  -4   7    0.70    0.19
   5   4  -7   11.48    0.65
   5   4  -7   10.18    0.46
   5   4  -7   10.91    0.48
  -5  -4   7   10.80    0.51
  -5  -4   7   10.90    0.38
  -5  -4   7   11.44    0.53
  -5  -4   7   11.05    0.52
  -5  -4   7   11.75    0.67
   4   4  -7   88.58    2.30
   4   4  -7   87.06    2.15
   4   4  -7   82.13    2.11
  -4  -4   7   83.22    2.16
  -4  -4   7   87.85    2.20
  -4  -4   7   83.67    2.29
  -4  -4   7   85.67    2.07
   3   4  -7    0.29    0.15
   3   4  -7    0.31    0.14
  -3  -4   7    0.16    0.13
  -3  -4   7    0.41    0.10
  -3  -4   7    0.39    0.09
  -3  -4   7    0.20    0.13
  -3  -4   7    0.20    0.14
   2   4  -7    5.09    0.38
   2   4  -7    5.65    0.28
   2   4  -7    6.02    0.42
  -2  -4   7    5.69    0.43
  -2  -4   7    5.30    0.39
  -2  -4   7    5.38    0.36
  -2  -4   7    5.42    0.30
   1   4  -7   13.88    0.50
   1   4  -7   12.76    0.61
  -1  -4   7   12.34    0.52
  -1  -4   7   12.95    0.52
  -1  -4   7   12.33    0.61
  -1  -4   7   12.62    0.63
   0   4  -7   12.50    0.71
   0   4  -7    9.76    0.57
   0   4  -7   11.45    0.70
   0  -4   7   10.52    0.58
   0  -4   7   10.72    0.42
   0  -4   7   10.47    0.60
  -1   4  -7   20.05    0.86
  -1   4  -7   20.58    0.81
  -1   4  -7   25.39    1.05
   1  -4   7   20.64    0.89
  -2   4  -7    4.31    0.42
  -2   4  -7    3.91    0.47
  -2   4  -7    4.56    0.46
   2  -4   7    3.97    0.41
   2  -4   7    4.22    0.44
  -3   4  -7   12.72    0.73
  -3   4  -7   13.07    0.75
  -3   4  -7   11.31    0.70
   3  -4   7   12.46    0.72
   3  -4   7   13.39    0.49
  -4   4  -7   22.52    1.02
  -4   4  -7   23.41    1.10
  -4   4  -7   22.67    1.00
   4  -4   7   22.55    0.79
  -5   4  -7   22.56    1.12
  -5   4  -7   21.23    1.21
  -5   4  -7   23.54    1.08
   5  -4   7   23.30    0.86
   9   3  -7    0.13    0.22
   9   3  -7   -0.05    0.24
  -9  -3   7    0.12    0.19
  -9  -3   7   -0.06    0.15
   8   3  -7    0.28    0.21
   8   3  -7    0.17    0.20
  -8  -3   7    0.35    0.14
   7   3  -7    3.49    0.59
   7   3  -7    2.82    0.39
  -7  -3   7    3.21    0.26
  -7  -3   7    2.86    0.22
   6   3  -7    6.91    0.55
   6   3  -7    6.45    0.47
   6   3  -7    5.59    0.26
  -6  -3   7    6.09    0.33
  -6  -3   7    6.09    0.34
  -6  -3   7    5.63    0.32
   5   3  -7   53.93    1.37
   5   3  -7   56.10    1.68
   5   3  -7   52.53    1.36
   5   3  -7   54.74    1.53
  -5  -3   7   47.20    1.93
  -5  -3   7   53.65    1.42
  -5  -3   7   55.18    1.44
  -5  -3   7   53.41    1.34
   4   3  -7   13.54    0.54
   4   3  -7   13.78    0.65
   4   3  -7   12.70    0.52
   4   3  -7   13.17    0.55
  -4  -3   7   13.60    0.57
  -4  -3   7   13.11    0.56
  -4  -3   7   13.03    0.64
  -4  -3   7   13.48    0.47
   3   3  -7   42.77    1.22
   3   3  -7   40.90    1.18
  -3  -3   7   42.08    1.22
  -3  -3   7   42.96    1.09
  -3  -3   7   40.64    1.25
  -3  -3   7   42.01    1.22
   2   3  -7  171.53    3.99
   2   3  -7  170.86    3.82
   2   3  -7  173.34    4.01
  -2  -3   7  174.08    4.02
  -2  -3   7  172.25    3.86
  -2  -3   7  174.18    4.02
   1   3  -7   77.40    1.83
   1   3  -7   77.30    2.01
   1   3  -7   74.07    1.98
  -1  -3   7   75.18    2.00
  -1  -3   7   76.83    2.02
  -1  -3   7   75.40    1.89
   0   3  -7   57.80    1.49
   0   3  -7   56.14    1.60
   0   3  -7   55.08    1.58
   0  -3   7   57.45    1.62
   0  -3   7   55.89    1.87
  -1   3  -7   56.96    1.55
  -1   3  -7   53.81    1.59
   1  -3   7   54.73    1.60
   1  -3   7   56.44    1.60
  -2   3  -7   40.96    1.32
  -2   3  -7   40.32    1.30
  -2   3  -7   39.03    1.26
   2  -3   7   39.02    1.28
  -3   3  -7   71.19    2.06
  -3   3  -7   73.64    2.08
  -3   3  -7   70.19    2.04
   3  -3   7   73.69    1.71
  -4   3  -7   56.01    1.77
  -4   3  -7   53.41    1.68
  -4   3  -7   52.83    1.70
   4  -3   7   54.90    1.70
  -5   3  -7   27.18    1.20
  -5   3  -7   27.93    1.12
  -5   3  -7   25.55    1.08
   5  -3   7   26.91    1.08
  -6   3  -7    9.78    0.77
  -6   3  -7    9.12    0.67
  -6   3  -7    8.57    0.64
   6  -3   7    8.72    0.60
   9   2  -7   15.96    0.94
   9   2  -7   17.33    1.01
   8   2  -7   21.31    1.04
   8   2  -7   23.58    1.13
   7   2  -7   35.30    1.70
   7   2  -7   36.38    1.32
  -7  -2   7   35.21    0.94
  -7  -2   7   34.52    1.09
  -7  -2   7   34.15    0.94
   6   2  -7   49.61    1.55
   6   2  -7   49.91    1.64
  -6  -2   7   48.52    1.31
  -6  -2   7   49.30    1.36
  -6  -2   7   50.68    1.30
   5   2  -7   62.85    1.61
   5   2  -7   66.38    1.63
   5   2  -7   70.47    1.97
   5   2  -7   68.30    1.84
  -5  -2   7   67.93    1.69
  -5  -2   7   67.25    1.68
  -5  -2   7   61.54    2.31
  -5  -2   7   70.13    1.70
   4   2  -7  154.16    3.65
   4   2  -7  143.43    3.65
   4   2  -7  156.08    3.44
   4   2  -7  145.94    3.42
  -4  -2   7  148.51    3.63
  -4  -2   7  148.32    3.46
  -4  -2   7  150.72    3.40
  -4  -2   7  156.31    3.48
   3   2  -7   51.52    1.36
   3   2  -7   49.77    1.30
   3   2  -7   48.79    1.34
  -3  -2   7   50.52    1.28
  -3  -2   7   50.16    1.37
  -3  -2   7   50.83    1.38
   2   2  -7   59.16    1.56
   2   2  -7   60.59    1.48
   2   2  -7   58.54    1.40
   2   2  -7   58.75    1.57
  -2  -2   7   59.75    1.58
  -2  -2   7   59.04    1.49
  -2  -2   7   58.93    1.59
   1   2  -7   43.15    1.11
   1   2  -7   41.05    1.20
   1   2  -7   41.63    1.22
  -1  -2   7   41.81    1.15
  -1  -2   7   41.59    1.22
  -1  -2   7   40.26    1.20
   0   2  -7  109.13    2.68
   0   2  -7  111.44    2.59
   0  -2   7  111.72    2.70
   0  -2   7  106.06    2.68
   0  -2   7  108.42    2.70
  -1   2  -7   66.41    1.72
  -1   2  -7   63.09    1.76
  -1   2  -7   65.47    1.78
   1  -2   7   66.24    1.78
   1  -2   7   65.11    1.78
  -2   2  -7   76.94    2.03
  -2   2  -7   77.02    2.07
  -2   2  -7   76.75    2.05
   2  -2   7   76.91    2.06
   2  -2   7   77.06    2.09
   2  -2   7   75.26    2.03
  -3   2  -7   71.38    1.98
  -3   2  -7   72.00    2.00
  -3   2  -7   69.02    1.94
   3  -2   7   72.75    1.97
   3  -2   7   70.80    2.04
   3  -2   7   68.72    1.94
  -4   2  -7    5.68    0.51
  -4   2  -7    5.04    0.44
  -4   2  -7    5.01    0.45
   4  -2   7    4.67    0.43
   4  -2   7    5.18    0.32
  -5   2  -7    0.08    0.15
  -5   2  -7    0.29    0.19
  -5   2  -7   -0.01    0.19
   5  -2   7    0.06    0.14
   5  -2   7   -0.04    0.09
  -6   2  -7    1.56    0.35
  -6   2  -7    1.86    0.31
  -6   2  -7    1.31    0.28
   6  -2   7    2.02    0.27
   6  -2   7    2.50    0.35
  -7   2  -7    0.89    0.26
  -7   2  -7    0.17    0.22
  -7   2  -7    0.61    0.27
   7  -2   7    0.99    0.24
   7  -2   7    0.52    0.16
   8   1  -7   44.78    1.64
   8   1  -7   44.78    1.68
   7   1  -7   29.85    1.35
   7   1  -7   28.77    1.17
  -7  -1   7   27.50    0.82
  -7  -1   7   27.44    0.82
   6   1  -7   38.46    1.32
   6   1  -7   37.37    0.97
   6   1  -7   37.38    1.36
   6   1  -7   36.15    0.97
  -6  -1   7   36.92    1.15
  -6  -1   7   38.16    1.42
  -6  -1   7   38.21    1.06
  -6  -1   7   38.89    1.06
   5   1  -7    1.75    0.19
   5   1  -7    2.00    0.32
   5   1  -7    1.83    0.27
   5   1  -7    2.35    0.21
  -5  -1   7    1.95    0.24
  -5  -1   7    2.31    0.24
  -5  -1   7    1.94    0.23
   4   1  -7   11.51    0.59
   4   1  -7   10.93    0.53
   4   1  -7   10.84    0.46
  -4  -1   7   11.23    0.49
  -4  -1   7   10.66    0.46
  -4  -1   7   11.40    0.49
   3   1  -7    7.33    0.37
   3   1  -7    6.96    0.43
   3   1  -7    7.30    0.37
  -3  -1   7    7.14    0.39
  -3  -1   7    7.27    0.38
   2   1  -7    0.44    0.13
   2   1  -7    0.29    0.13
   2   1  -7    0.57    0.12
  -2  -1   7    0.30    0.13
  -2  -1   7    0.34    0.13
  -2  -1   7    0.39    0.11
   1   1  -7   20.23    0.72
   1   1  -7   20.60    0.66
   1   1  -7   20.39    0.55
   1   1  -7   20.23    0.71
  -1  -1   7   20.09    0.72
  -1  -1   7   19.62    0.72
  -1  -1   7   20.20    0.67
   0   1  -7   17.62    0.68
   0   1  -7   17.47    0.67
   0   1  -7   18.32    0.63
   0  -1   7   18.49    0.69
  -1   1  -7   36.53    1.13
  -1   1  -7   39.87    1.37
   1  -1   7   36.99    1.14
   1  -1   7   35.53    1.12
  -2   1  -7   80.19    1.83
  -2   1  -7   81.88    2.10
  -2   1  -7   80.87    2.09
  -2   1  -7   79.88    2.11
   2  -1   7   80.54    2.14
   2  -1   7   81.86    2.16
   2  -1   7   79.44    2.09
  -3   1  -7   69.16    1.88
  -3   1  -7   67.64    1.64
  -3   1  -7   67.53    1.88
  -3   1  -7   68.10    1.85
   3  -1   7   68.58    1.95
   3  -1   7   67.39    1.85
   3  -1   7   67.22    1.90
  -4   1  -7   60.41    1.73
  -4   1  -7   59.31    1.70
  -4   1  -7   57.00    1.64
  -4   1  -7   61.11    1.80
   4  -1   7   60.41    1.75
   4  -1   7   59.50    1.75
   4  -1   7   60.44    1.64
   4  -1   7   58.34    1.86
  -5   1  -7   76.01    2.11
  -5   1  -7   80.18    2.29
  -5   1  -7   76.49    2.15
   5  -1   7   78.71    2.02
   5  -1   7   77.44    2.35
  -6   1  -7   41.60    1.39
  -6   1  -7   44.54    1.53
  -6   1  -7   43.44    1.67
   6  -1   7   42.30    1.31
  -7   1  -7   13.07    0.87
  -7   1  -7   13.33    0.74
  -7   1  -7   12.26    0.68
   7  -1   7   13.27    0.70
   7  -1   7   13.31    0.65
   8   0  -7    2.35    0.44
   8   0  -7    1.49    0.34
  -8   0   7    1.75    0.22
  -8   0   7    2.04    0.24
   7   0  -7    3.39    0.47
   7   0  -7    3.86    0.49
  -7   0   7    4.55    0.31
  -7   0   7    4.42    0.30
   6   0  -7   14.84    0.78
   6   0  -7   16.00    0.82
   6   0  -7   15.48    0.54
  -6   0   7   15.19    0.59
  -6   0   7   15.93    1.09
  -6   0   7   15.03    0.59
   5   0  -7   39.23    1.28
   5   0  -7   37.75    1.06
   5   0  -7   40.18    1.34
   5   0  -7   39.73    1.07
  -5   0   7   38.25    1.51
  -5   0   7   39.74    1.12
  -5   0   7   36.72    1.17
  -5   0   7   39.12    1.12
   4   0  -7   88.19    2.12
   4   0  -7   88.12    2.31
   4   0  -7   87.08    2.25
   4   0  -7   85.19    2.12
  -4   0   7   90.02    2.16
  -4   0   7   85.10    2.17
  -4   0   7   87.93    2.15
   3   0  -7   10.83    0.63
   3   0  -7   10.87    0.46
   3   0  -7   11.18    0.54
   3   0  -7   11.00    0.47
  -3   0   7   10.53    0.46
  -3   0   7   10.50    0.47
  -3   0   7   10.56    0.48
   2   0  -7  119.32    2.86
   2   0  -7  123.58    2.87
  -2   0   7  119.05    2.83
  -2   0   7  120.97    2.88
  -2   0   7  127.11    2.91
   1   0  -7  135.51    3.18
   1   0  -7  140.06    3.15
   1   0  -7  133.88    3.18
  -1   0   7  136.77    3.19
  -1   0   7  135.67    3.19
   0   0  -7  238.50    5.25
   0   0  -7  234.26    5.30
   0   0  -7  238.14    5.31
   0   0   7  250.91    5.46
   0   0   7  221.67    5.65
   0   0   7  237.58    5.31
  -1   0  -7  181.08    4.14
  -1   0  -7  176.06    4.48
   1   0   7  181.81    4.15
   1   0   7  181.66    4.15
  -2   0  -7  113.88    2.81
  -2   0  -7  117.82    2.83
  -2   0  -7  115.41    2.81
  -2   0  -7  115.43    2.63
   2   0   7  116.06    2.82
   2   0   7  118.30    2.88
   2   0   7  116.25    2.82
  -3   0  -7  167.68    3.80
  -3   0  -7  169.86    3.99
  -3   0  -7  167.61    3.97
  -3   0  -7  171.52    4.01
   3   0   7  171.87    3.98
   3   0   7  166.71    3.96
   3   0   7  171.43    4.08
  -4   0  -7   35.75    1.23
  -4   0  -7   35.54    1.18
  -4   0  -7   36.60    1.18
  -4   0  -7   36.72    1.17
   4   0   7   37.83    1.17
   4   0   7   36.67    1.28
   4   0   7   35.93    1.15
  -5   0  -7   35.11    1.28
  -5   0  -7   35.29    1.11
  -5   0  -7   36.30    1.20
  -5   0  -7   36.02    1.17
   5   0   7   34.09    1.17
   5   0   7   36.18    1.15
   5   0   7   36.29    1.16
  -6   0  -7   51.09    1.57
  -6   0  -7   55.49    1.63
  -6   0  -7   53.13    1.76
  -6   0  -7   52.66    1.55
   6   0   7   52.86    1.56
   6   0   7   52.68    1.58
  -7   0  -7    3.62    0.49
  -7   0  -7    4.84    0.43
  -7   0  -7    4.74    0.56
  -7   0  -7    5.91    0.48
   7   0   7    4.54    0.44
   7   0   7    4.87    0.41
  -8   0  -7   10.97    0.65
  -8   0  -7   10.66    0.60
  -8   0  -7   10.88    0.79
   8   0   7    9.00    0.63
   8   0   7    9.78    0.57
   8  -1  -7   26.50    1.23
   8  -1  -7   25.30    1.24
  -8   1   7   24.87    0.98
  -8   1   7   24.89    0.84
   7  -1  -7   23.35    1.11
   7  -1  -7   22.73    0.72
   7  -1  -7   22.46    1.07
   7  -1  -7   21.47    0.76
  -7   1   7   23.78    0.82
  -7   1   7   22.38    0.79
   6  -1  -7   32.84    1.25
   6  -1  -7   32.40    0.96
   6  -1  -7   30.94    0.98
   6  -1  -7   33.20    1.26
  -6   1   7   33.74    1.04
  -6   1   7   31.49    1.01
   5  -1  -7   35.19    1.04
   5  -1  -7   35.24    1.25
   5  -1  -7   35.32    1.05
   5  -1  -7   35.24    1.26
  -5   1   7   34.98    1.08
  -5   1   7   37.62    1.11
   4  -1  -7  104.46    2.52
   4  -1  -7  106.75    2.69
   4  -1  -7  106.18    2.67
   4  -1  -7  102.65    2.51
  -4   1   7  106.65    2.56
  -4   1   7  102.10    2.54
  -4   1   7  102.68    2.59
   3  -1  -7   30.96    0.96
   3  -1  -7   31.27    1.03
   3  -1  -7   32.55    0.97
  -3   1   7   31.11    0.97
  -3   1   7   31.26    0.98
  -3   1   7   33.07    1.00
   2  -1  -7  213.16    4.90
   2  -1  -7  220.72    4.91
  -2   1   7  217.98    4.93
  -2   1   7  221.31    4.92
  -2   1   7  218.60    4.89
   1  -1  -7  177.58    3.94
   1  -1  -7  166.27    3.90
   1  -1  -7  172.88    3.92
  -1   1   7  171.30    3.92
  -1   1   7  171.49    3.93
  -1   1   7  163.92    3.86
   0  -1  -7   57.13    1.52
   0  -1  -7   56.63    1.51
   0   1   7   56.56    1.49
   0   1   7   54.94    1.55
  -1  -1  -7   66.66    1.92
  -1  -1  -7   69.13    1.77
  -1  -1  -7   68.22    1.77
   1   1   7   69.90    1.79
   1   1   7   68.18    1.78
   1   1   7   69.11    1.79
  -2  -1  -7   98.64    2.42
  -2  -1  -7   96.66    2.42
   2   1   7   97.59    2.41
   2   1   7   97.80    2.46
   2   1   7   98.13    2.42
  -3  -1  -7   30.43    1.04
  -3  -1  -7   32.58    1.05
  -3  -1  -7   31.30    0.93
  -3  -1  -7   33.16    1.04
   3   1   7   31.35    1.01
   3   1   7   31.53    1.09
   3   1   7   30.76    1.00
  -4  -1  -7   18.57    0.74
  -4  -1  -7   18.23    0.73
  -4  -1  -7   18.75    0.79
  -4  -1  -7   18.43    0.69
   4   1   7   19.06    0.73
   4   1   7   18.19    0.81
   4   1   7   18.40    0.72
  -5  -1  -7    1.20    0.23
  -5  -1  -7    1.26    0.22
  -5  -1  -7    1.39    0.24
  -5  -1  -7    1.03    0.24
   5   1   7    1.04    0.20
   5   1   7    1.17    0.20
   5   1   7    1.11    0.30
   5   1   7    1.28    0.24
  -6  -1  -7    5.54    0.45
  -6  -1  -7    5.12    0.42
  -6  -1  -7    5.49    0.52
  -6  -1  -7    4.76    0.42
   6   1   7    6.14    0.46
   6   1   7    5.05    0.38
   6   1   7    4.75    0.38
  -7  -1  -7   -0.31    0.13
  -7  -1  -7   -0.19    0.20
  -7  -1  -7    0.07    0.15
  -7  -1  -7   -0.04    0.19
   7   1   7   -0.03    0.10
   7   1   7   -0.02    0.16
  -8  -1  -7    2.36    0.42
  -8  -1  -7    2.06    0.30
  -8  -1  -7    3.35    0.39
   8   1   7    2.63    0.37
   8   1   7    2.87    0.34
   7  -2  -7   16.14    0.95
   7  -2  -7   15.92    0.91
   7  -2  -7   16.01    0.64
  -7   2   7   17.36    0.69
  -7   2   7   16.82    0.73
   6  -2  -7   19.82    0.94
   6  -2  -7   18.98    0.72
   6  -2  -7   19.62    0.98
  -6   2   7   20.16    0.80
  -6   2   7   18.34    0.75
   5  -2  -7   18.94    0.72
   5  -2  -7   20.50    0.93
   5  -2  -7   19.31    0.73
   5  -2  -7   19.42    0.89
  -5   2   7   20.67    0.78
  -5   2   7   20.96    0.81
   4  -2  -7    0.75    0.19
   4  -2  -7    0.74    0.14
   4  -2  -7    0.60    0.19
   4  -2  -7    0.83    0.17
  -4   2   7    0.91    0.17
  -4   2   7    0.90    0.19
   3  -2  -7   10.15    0.53
   3  -2  -7   10.52    0.50
   3  -2  -7    9.57    0.47
  -3   2   7   10.72    0.51
  -3   2   7    9.53    0.50
  -3   2   7   10.67    0.53
   2  -2  -7    2.13    0.25
   2  -2  -7    1.58    0.22
   2  -2  -7    1.84    0.24
  -2   2   7    1.60    0.22
  -2   2   7    1.84    0.23
  -2   2   7    1.57    0.23
   1  -2  -7    0.28    0.11
   1  -2  -7    0.56    0.13
  -1   2   7    0.34    0.13
  -1   2   7    0.41    0.18
  -1   2   7    0.39    0.12
   0  -2  -7   43.13    1.24
   0  -2  -7   44.25    1.26
   0  -2  -7   44.59    1.23
   0   2   7   42.77    1.25
   0   2   7   42.00    1.24
   0   2   7   43.65    1.22
  -1  -2  -7   80.93    2.10
  -1  -2  -7   84.62    2.13
  -1  -2  -7   82.80    2.08
   1   2   7   84.42    2.11
   1   2   7   83.96    2.24
   1   2   7   85.38    2.12
  -2  -2  -7   20.70    0.76
  -2  -2  -7   20.94    0.83
  -2  -2  -7   20.28    0.74
   2   2   7   20.52    0.75
   2   2   7   19.84    0.74
   2   2   7   20.81    0.77
  -3  -2  -7   93.55    2.40
  -3  -2  -7   96.53    2.43
  -3  -2  -7   96.19    2.41
   3   2   7   97.25    2.40
   3   2   7   96.59    2.40
   3   2   7   98.31    2.49
  -4  -2  -7   17.72    0.70
  -4  -2  -7   17.83    0.71
  -4  -2  -7   17.80    0.75
  -4  -2  -7   18.10    0.71
   4   2   7   18.45    0.71
   4   2   7   17.99    0.70
   4   2   7   17.58    0.79
  -5  -2  -7   40.75    1.33
  -5  -2  -7   38.46    1.25
  -5  -2  -7   40.07    1.23
   5   2   7   39.11    1.21
   5   2   7   39.92    1.38
   5   2   7   41.13    1.22
  -6  -2  -7   97.88    2.59
  -6  -2  -7  100.00    2.67
  -6  -2  -7   96.78    2.50
  -6  -2  -7   97.54    2.50
   6   2   7   96.91    2.48
   6   2   7   97.51    2.46
   6   2   7  100.97    2.65
  -7  -2  -7   16.90    0.75
  -7  -2  -7   19.46    0.79
  -7  -2  -7   19.96    0.99
   7   2   7   19.41    0.90
   7   2   7   19.12    0.73
   7   2   7   16.06    0.91
  -8  -2  -7   23.73    1.11
  -8  -2  -7   22.44    0.88
  -8  -2  -7   24.19    0.94
   8   2   7   24.08    0.84
   7  -3  -7    2.95    0.51
   7  -3  -7    1.84    0.27
  -7   3   7    2.00    0.31
   6  -3  -7    4.30    0.49
   6  -3  -7    4.48    0.54
   6  -3  -7    4.04    0.39
  -6   3   7    4.90    0.47
  -6   3   7    4.62    0.41
   5  -3  -7    6.64    0.44
   5  -3  -7    5.33    0.72
   5  -3  -7    6.31    0.53
  -5   3   7    6.09    0.43
  -5   3   7    5.50    0.47
   4  -3  -7   83.75    2.19
   4  -3  -7   80.81    2.18
   4  -3  -7   85.19    2.27
  -4   3   7   88.45    2.26
  -4   3   7   83.60    2.21
  -4   3   7   81.34    2.26
   3  -3  -7   15.49    0.67
   3  -3  -7   17.45    0.72
   3  -3  -7   17.16    0.70
  -3   3   7   16.01    0.69
  -3   3   7   17.25    0.73
   2  -3  -7   62.49    1.79
   2  -3  -7   59.01    1.67
   2  -3  -7   64.48    1.77
  -2   3   7   61.78    1.72
  -2   3   7   61.02    1.68
  -2   3   7   61.34    1.69
   1  -3  -7  111.39    2.82
   1  -3  -7  120.96    2.95
  -1   3   7  114.12    2.79
  -1   3   7  116.38    2.84
  -1   3   7  116.52    2.86
   0  -3  -7  142.57    3.43
   0  -3  -7  145.87    3.44
   0   3   7  143.34    3.39
   0   3   7  147.74    3.46
  -1  -3  -7   96.07    2.35
  -1  -3  -7   88.00    2.31
   1   3   7   92.71    2.34
   1   3   7   95.40    2.36
   1   3   7   92.42    2.31
  -2  -3  -7  234.82    5.29
  -2  -3  -7  234.94    5.32
  -2  -3  -7  234.03    5.32
   2   3   7  233.39    5.32
   2   3   7  240.42    5.48
   2   3   7  231.90    5.31
  -3  -3  -7  142.56    3.41
  -3  -3  -7  143.63    3.43
  -3  -3  -7  141.49    3.47
   3   3   7  146.47    3.49
   3   3   7  143.65    3.42
   3   3   7  147.97    3.44
  -4  -3  -7   51.71    1.47
  -4  -3  -7   50.73    1.46
   4   3   7   51.77    1.56
   4   3   7   50.45    1.45
   4   3   7   51.44    1.45
  -5  -3  -7   78.44    2.10
  -5  -3  -7   77.01    2.02
  -5  -3  -7   75.60    2.08
  -5  -3  -7   74.52    2.00
   5   3   7   76.48    1.99
   5   3   7   75.96    2.17
   5   3   7   77.10    2.01
  -6  -3  -7   63.21    1.75
  -6  -3  -7   65.13    1.76
  -6  -3  -7   61.86    1.86
  -6  -3  -7   62.18    2.09
   6   3   7   66.66    1.94
   6   3   7   63.52    1.77
   6   3   7   63.67    1.71
   6   3   7   60.52    1.94
  -7  -3  -7   42.83    1.47
  -7  -3  -7   43.04    1.30
  -7  -3  -7   39.44    1.27
   7   3   7   38.24    1.22
   7   3   7   43.36    1.50
   7   3   7   41.41    1.23
  -8  -3  -7   12.50    0.63
  -8  -3  -7   14.38    0.79
  -8  -3  -7   13.71    0.82
   8   3   7   14.25    0.59
   8   3   7   14.28    0.83
  -9  -3  -7   14.43    0.67
  -9  -3  -7   16.08    0.71
  -9  -3  -7   16.32    0.95
   9   3   7   16.44    0.94
   9   3   7   15.23    0.60
   6  -4  -7   22.88    1.18
   6  -4  -7   25.31    1.32
  -6   4   7   24.96    1.00
  -6   4   7   26.05    1.06
   5  -4  -7   40.67    1.34
   5  -4  -7   40.01    1.38
   5  -4  -7   39.51    1.54
  -5   4   7   40.98    1.36
  -5   4   7   42.26    1.41
   4  -4  -7   16.79    0.76
   4  -4  -7   16.30    0.75
  -4   4   7   17.23    0.77
  -4   4   7   18.04    0.82
   3  -4  -7   55.13    1.57
   3  -4  -7   56.44    1.65
  -3   4   7   54.74    1.64
  -3   4   7   56.42    1.68
   2  -4  -7   32.69    1.11
   2  -4  -7   32.83    1.26
  -2   4   7   32.38    1.14
  -2   4   7   31.80    1.10
   1  -4  -7  108.91    2.78
   1  -4  -7  113.17    2.63
   1  -4  -7  114.59    2.82
  -1   4   7  108.01    2.74
  -1   4   7  115.12    2.84
  -1   4   7  109.51    2.79
   0  -4  -7   77.76    2.05
   0   4   7   77.83    2.07
   0   4   7   76.70    2.03
   0   4   7   73.56    1.97
  -1  -4  -7    8.77    0.50
  -1  -4  -7    8.83    0.48
  -1  -4  -7    8.38    0.48
   1   4   7    8.31    0.46
   1   4   7    8.70    0.48
   1   4   7    8.56    0.50
  -2  -4  -7   24.69    0.90
  -2  -4  -7   25.06    0.89
  -2  -4  -7   25.66    0.87
   2   4   7   25.05    0.90
   2   4   7   25.64    0.89
   2   4   7   24.82    0.89
  -3  -4  -7    2.04    0.27
  -3  -4  -7    2.11    0.29
  -3  -4  -7    1.92    0.27
   3   4   7    1.96    0.28
   3   4   7    2.13    0.26
   3   4   7    1.55    0.34
  -4  -4  -7   11.78    0.59
  -4  -4  -7   12.29    0.58
  -4  -4  -7   12.64    0.59
   4   4   7   12.58    0.64
   4   4   7   12.58    0.58
   4   4   7   12.12    0.57
  -5  -4  -7    0.05    0.12
  -5  -4  -7    0.02    0.14
  -5  -4  -7    0.13    0.15
   5   4   7    0.03    0.11
   5   4   7   -0.08    0.10
   5   4   7   -0.10    0.14
  -6  -4  -7    9.05    0.51
  -6  -4  -7    8.02    0.56
  -6  -4  -7    9.02    0.57
  -6  -4  -7    9.53    0.52
   6   4   7    8.69    0.62
   6   4   7    8.88    0.61
   6   4   7    8.13    0.48
   6   4   7    8.48    0.47
  -7  -4  -7    3.42    0.36
  -7  -4  -7    3.75    0.45
  -7  -4  -7    3.79    0.35
   7   4   7    2.56    0.33
   7   4   7    3.38    0.32
   7   4   7    4.18    0.50
  -8  -4  -7   13.90    0.78
  -8  -4  -7   13.10    0.64
  -8  -4  -7   14.74    0.82
   8   4   7   14.08    0.58
   8   4   7   14.65    0.87
  -9  -4  -7   12.23    0.62
  -9  -4  -7   13.17    0.61
  -9  -4  -7   12.64    0.82
   9   4   7   13.36    0.88
   9   4   7   13.14    0.54
   5  -5  -7    5.22    0.51
   5  -5  -7    5.52    0.58
  -5   5   7    4.91    0.56
  -5   5   7    4.80    0.62
   4  -5  -7    0.90    0.25
  -4   5   7    0.88    0.25
  -4   5   7    0.76    0.25
   3  -5  -7    0.46    0.19
   3  -5  -7    0.47    0.17
  -3   5   7    0.36    0.20
  -3   5   7    0.56    0.28
   2  -5  -7    1.25    0.20
   2  -5  -7    1.18    0.24
  -2   5   7    1.51    0.26
  -2   5   7    0.90    0.23
   1  -5  -7    0.34    0.12
   1  -5  -7    0.10    0.16
   1  -5  -7    0.16    0.13
  -1   5   7    0.18    0.13
  -1   5   7   -0.06    0.15
  -1   5   7   -0.02    0.17
   0  -5  -7    9.28    0.54
   0  -5  -7   10.50    0.41
   0  -5  -7    9.67    0.58
   0   5   7   10.61    0.53
   0   5   7   10.10    0.60
   0   5   7    9.65    0.57
  -1  -5  -7   11.35    0.61
  -1  -5  -7   10.61    0.58
   1   5   7   11.23    0.59
   1   5   7   10.79    0.53
   1   5   7   10.99    0.60
  -2  -5  -7   27.32    0.94
  -2  -5  -7   26.06    0.96
  -2  -5  -7   26.23    0.98
   2   5   7   27.40    1.00
   2   5   7   27.26    0.98
   2   5   7   26.95    0.96
  -3  -5  -7   19.88    0.76
  -3  -5  -7   18.84    0.79
  -3  -5  -7   19.12    0.80
   3   5   7   19.07    0.78
   3   5   7   20.83    0.82
   3   5   7   19.47    0.80
  -4  -5  -7    3.72    0.37
  -4  -5  -7    4.16    0.36
  -4  -5  -7    4.06    0.36
   4   5   7    4.97    0.48
   4   5   7    3.90    0.41
   4   5   7    4.08    0.40
  -5  -5  -7   14.18    0.67
  -5  -5  -7   13.84    0.66
  -5  -5  -7   14.20    0.66
   5   5   7   14.96    0.66
   5   5   7   13.61    0.71
   5   5   7   14.60    0.65
  -6  -5  -7   67.18    1.84
  -6  -5  -7   66.56    1.88
  -6  -5  -7   63.17    1.89
   6   5   7   67.84    2.07
   6   5   7   67.67    1.81
   6   5   7   64.32    1.98
  -7  -5  -7   55.75    1.63
  -7  -5  -7   55.53    1.64
  -7  -5  -7   60.70    1.77
   7   5   7   58.45    1.93
   7   5   7   54.97    1.57
  -8  -5  -7   19.76    0.81
  -8  -5  -7   19.37    0.97
  -8  -5  -7   18.12    0.76
   8   5   7   19.36    1.03
   8   5   7   19.10    0.72
  -9  -5  -7   26.36    0.98
  -9  -5  -7   30.16    1.01
  -9  -5  -7   29.90    1.23
   9   5   7   28.87    1.33
   9   5   7   27.84    0.88
   4  -6  -7    1.01    0.28
  -4   6   7    1.83    0.32
   3  -6  -7   22.44    1.02
  -3   6   7   22.42    1.02
  -3   6   7   23.48    1.07
   2  -6  -7   19.16    0.91
  -2   6   7   20.86    0.97
  -2   6   7   19.03    0.91
   1  -6  -7   38.82    1.05
   1  -6  -7   41.25    1.40
  -1   6   7   41.43    1.43
  -1   6   7   39.64    1.38
   0  -6  -7   39.17    1.35
   0  -6  -7   43.29    1.41
   0   6   7   36.37    1.26
   0   6   7   44.44    1.44
   0   6   7   39.98    1.37
  -1  -6  -7   52.62    1.68
   1   6   7   51.88    1.71
   1   6   7   53.22    1.64
   1   6   7   50.42    1.60
  -2  -6  -7   63.59    1.88
  -2  -6  -7   69.03    1.93
   2   6   7   59.09    1.85
   2   6   7   69.86    1.95
   2   6   7   66.36    1.84
  -3  -6  -7   47.83    1.42
  -3  -6  -7   43.48    1.44
  -3  -6  -7   49.24    1.50
   3   6   7   46.85    1.48
   3   6   7   46.37    1.45
  -4  -6  -7   96.76    2.46
  -4  -6  -7   98.77    2.55
  -4  -6  -7   94.42    2.53
   4   6   7   98.11    2.54
   4   6   7   92.01    2.54
  -5  -6  -7   41.21    1.33
  -5  -6  -7   45.10    1.39
  -5  -6  -7   41.35    1.27
  -5  -6  -7   42.27    1.31
   5   6   7   45.85    1.43
   5   6   7   35.64    1.80
  -6  -6  -7   30.46    1.09
  -6  -6  -7   31.79    1.10
  -6  -6  -7   32.82    1.13
  -6  -6  -7   31.04    1.09
   6   6   7   27.82    1.16
   6   6   7   31.22    1.07
   6   6   7   31.72    1.54
  -7  -6  -7   46.82    1.50
  -7  -6  -7   44.58    1.45
  -7  -6  -7   44.77    1.67
  -7  -6  -7   44.25    1.54
   7   6   7   43.77    1.36
   7   6   7   46.97    1.70
  -8  -6  -7    7.36    0.47
  -8  -6  -7    6.95    0.50
  -8  -6  -7    6.97    0.67
   8   6   7    6.51    0.64
   8   6   7    5.76    0.43
   3  -7  -7   24.48    1.17
  -3   7   7   25.43    1.19
   2  -7  -7    7.23    0.62
  -2   7   7    7.98    0.68
   1  -7  -7   20.45    0.98
  -1   7   7   19.70    1.00
   0  -7  -7   18.40    0.90
   0   7   7   17.91    0.92
  -1  -7  -7   12.83    0.74
   1   7   7   12.65    0.75
  -2  -7  -7    4.25    0.47
  -2  -7  -7    4.02    0.44
   2   7   7    3.24    0.38
   2   7   7    4.44    0.48
  -3  -7  -7    2.73    0.42
  -3  -7  -7    2.84    0.55
   3   7   7    2.37    0.37
   3   7   7    3.27    0.43
  -4  -7  -7    1.09    0.23
  -4  -7  -7    0.87    0.25
  -4  -7  -7    1.05    0.16
   4   7   7    0.63    0.21
   4   7   7    1.16    0.25
  -5  -7  -7   -0.09    0.13
  -5  -7  -7    0.01    0.18
  -5  -7  -7   -0.04    0.13
  -5  -7  -7    0.10    0.16
   5   7   7   -0.23    0.16
   5   7   7    0.11    0.15
  -6  -7  -7   10.06    0.64
  -6  -7  -7   11.47    0.61
  -6  -7  -7   11.16    0.63
  -6  -7  -7   11.08    0.58
   6   7   7   10.64    0.75
   6   7   7    9.27    0.69
   6   7   7   11.10    0.64
  -7  -7  -7    7.50    0.56
  -7  -7  -7    6.87    0.51
  -7  -7  -7    7.96    0.51
  -7  -7  -7    6.99    0.53
   7   7   7    7.13    0.50
   7   7   7    5.87    0.62
  -8  -7  -7    4.21    0.57
  -8  -7  -7    4.03    0.53
  -8  -7  -7    4.72    0.46
   8   7   7    4.77    0.58
   8   7   7    4.15    0.41
   1  -8  -7    3.55    0.54
  -1   8   7    2.98    0.47
   0  -8  -7    0.38    0.26
   0   8   7    0.37    0.25
  -1  -8  -7    1.33    0.31
   1   8   7    1.72    0.34
  -2  -8  -7   15.88    0.86
   2   8   7   15.59    0.87
  -3  -8  -7    4.13    0.50
   3   8   7    3.72    0.49
  -4  -8  -7   21.79    0.99
  -4  -8  -7   18.06    0.90
   4   8   7   19.90    0.95
  -5  -8  -7   16.85    0.86
  -5  -8  -7   17.34    1.10
  -5  -8  -7   15.09    0.60
   5   8   7   16.23    0.82
   5   8   7   17.09    0.92
  -6  -8  -7   12.65    0.57
  -6  -8  -7   13.06    0.75
  -6  -8  -7   13.49    0.74
  -6  -8  -7   12.60    0.66
   6   8   7   13.19    0.85
   6   8   7   12.61    0.71
  -7  -8  -7   31.20    1.19
  -7  -8  -7   31.18    1.13
  -7  -8  -7   34.35    1.25
  -7  -8  -7   30.82    1.25
   7   8   7   33.23    1.53
   7   8   7   33.50    1.43
  -1  -9  -7   14.66    0.90
   1   9   7   14.42    0.93
  -2  -9  -7   16.32    0.93
   2   9   7   16.18    0.96
  -3  -9  -7   17.60    0.95
   3   9   7   17.21    1.18
  -4  -9  -7   11.28    0.75
   4   9   7   10.42    0.77
   4   9   7   10.61    0.73
  -5  -9  -7   15.18    0.85
   5   9   7   14.19    0.84
   5   9   7   15.52    0.90
   5   8  -8    1.17    0.47
   5   8  -8    0.77    0.26
  -5  -8   8    0.34    0.24
  -5  -8   8    0.85    0.19
  -5  -8   8    1.14    0.26
   4   8  -8    6.94    0.55
   4   8  -8    6.87    0.56
  -4  -8   8    7.05    0.60
  -4  -8   8    4.91    0.50
  -4  -8   8    7.21    0.61
   3   8  -8    3.28    0.49
   3   8  -8    4.16    0.45
  -3  -8   8    4.38    0.52
   2   8  -8    2.45    0.42
  -2  -8   8    2.77    0.44
   1   8  -8    2.22    0.31
   1   8  -8    2.62    0.44
  -1  -8   8    3.60    0.55
   7   7  -8    9.68    0.73
  -7  -7   8    9.69    0.57
  -7  -7   8    8.95    0.70
  -7  -7   8   10.32    0.54
   6   7  -8   18.94    0.78
   6   7  -8   19.85    0.98
  -6  -7   8   20.56    0.87
  -6  -7   8   17.64    0.98
  -6  -7   8   18.00    0.76
   5   7  -8   19.00    0.83
   5   7  -8   19.63    0.93
  -5  -7   8   20.36    0.86
  -5  -7   8   17.57    0.68
   4   7  -8   10.34    0.65
   4   7  -8   10.59    0.63
  -4  -7   8    9.67    0.42
  -4  -7   8   12.58    0.73
  -4  -7   8   10.20    0.60
  -4  -7   8   11.61    0.69
   3   7  -8   41.35    1.42
   3   7  -8   42.54    1.37
  -3  -7   8   39.72    1.87
  -3  -7   8   38.24    1.25
  -3  -7   8   40.16    1.46
   2   7  -8   25.21    1.08
  -2  -7   8   22.51    0.80
  -2  -7   8   25.30    1.12
  -2  -7   8   23.86    1.06
   1   7  -8   14.62    0.85
   1   7  -8   14.62    0.59
  -1  -7   8   15.84    0.89
   0   7  -8   22.09    1.08
   0   7  -8   21.96    0.85
   0  -7   8   22.23    1.09
  -1   7  -8    5.99    0.64
  -1   7  -8    5.89    0.52
   1  -7   8    5.97    0.63
   7   6  -8   26.11    1.17
   7   6  -8   21.97    0.72
  -7  -6   8   22.30    0.82
  -7  -6   8   25.43    1.01
  -7  -6   8   21.57    0.90
   6   6  -8   10.00    0.76
   6   6  -8    7.88    0.46
  -6  -6   8    8.55    0.49
  -6  -6   8    9.47    0.64
  -6  -6   8    7.46    0.49
   5   6  -8   46.28    1.56
   5   6  -8   44.75    1.37
  -5  -6   8   42.68    1.25
  -5  -6   8   47.21    1.48
   4   6  -8    5.10    0.46
   4   6  -8    3.73    0.52
  -4  -6   8    4.35    0.41
  -4  -6   8    4.08    0.27
  -4  -6   8    3.19    0.53
   3   6  -8    8.09    0.55
  -3  -6   8    7.55    0.50
  -3  -6   8    6.18    0.52
  -3  -6   8    7.98    0.58
   2   6  -8    2.30    0.37
   2   6  -8    2.60    0.21
  -2  -6   8    2.66    0.40
  -2  -6   8    3.05    0.42
  -2  -6   8    2.27    0.28
   1   6  -8    7.69    0.60
  -1  -6   8    7.50    0.59
  -1  -6   8    7.39    0.77
  -1  -6   8    6.92    0.37
   0   6  -8    4.81    0.39
   0   6  -8    4.44    0.52
   0  -6   8    5.17    0.60
  -1   6  -8   -0.07    0.21
   1  -6   8    0.12    0.20
  -2   6  -8    3.35    0.51
  -2   6  -8    2.07    0.34
   2  -6   8    2.62    0.42
  -3   6  -8    0.33    0.24
  -3   6  -8    0.72    0.27
   3  -6   8    0.09    0.22
   8   5  -8    0.38    0.27
   7   5  -8    0.20    0.20
  -7  -5   8    0.23    0.14
   6   5  -8    5.24    0.34
   6   5  -8    5.12    0.34
   6   5  -8    5.35    0.57
  -6  -5   8    5.74    0.41
  -6  -5   8    5.80    0.40
   5   5  -8    2.16    0.35
   5   5  -8    1.83    0.24
   5   5  -8    2.27    0.27
  -5  -5   8    1.73    0.25
  -5  -5   8    1.72    0.26
   4   5  -8    2.08    0.28
   4   5  -8    1.77    0.25
   4   5  -8    1.61    0.29
  -4  -5   8    1.89    0.40
  -4  -5   8    1.64    0.29
  -4  -5   8    1.60    0.25
   3   5  -8   25.01    1.08
   3   5  -8   20.27    0.89
  -3  -5   8   25.01    0.92
  -3  -5   8   27.07    0.97
   2   5  -8   44.87    1.43
   2   5  -8   45.44    1.15
  -2  -5   8   44.84    1.47
  -2  -5   8   44.76    1.32
  -2  -5   8   42.72    1.41
   1   5  -8   10.72    0.63
   1   5  -8   10.07    0.46
  -1  -5   8    9.03    0.60
  -1  -5   8    9.52    0.63
  -1  -5   8    9.80    0.60
   0   5  -8   20.01    0.92
   0   5  -8   20.80    0.77
   0  -5   8   20.88    0.95
   0  -5   8   20.15    0.65
   0  -5   8   20.23    0.91
  -1   5  -8   20.93    0.85
  -1   5  -8   21.02    0.97
   1  -5   8   20.44    0.96
  -2   5  -8   38.15    1.32
  -2   5  -8   35.17    1.61
   2  -5   8   37.63    1.41
  -3   5  -8   25.69    1.19
  -3   5  -8   25.89    1.16
   3  -5   8   25.11    1.15
  -4   5  -8   13.52    0.84
  -4   5  -8   14.23    0.88
   8   4  -8    6.55    0.64
  -8  -4   8    6.15    0.43
  -8  -4   8    5.31    0.34
   7   4  -8   27.23    1.21
  -7  -4   8   27.21    0.88
  -7  -4   8   27.47    0.83
  -7  -4   8   28.59    0.86
   6   4  -8   25.65    1.11
   6   4  -8   25.43    0.77
  -6  -4   8   26.44    0.88
  -6  -4   8   25.42    0.75
  -6  -4   8   25.01    0.85
   5   4  -8   91.63    2.32
   5   4  -8   94.76    2.35
   5   4  -8   97.93    2.64
  -5  -4   8   99.60    2.44
  -5  -4   8   96.35    2.21
  -5  -4   8   94.26    2.39
   4   4  -8   11.26    0.64
   4   4  -8   10.70    0.54
   4   4  -8   11.49    0.55
  -4  -4   8   11.14    0.57
  -4  -4   8   11.29    0.62
  -4  -4   8   11.40    0.43
  -4  -4   8   12.30    0.58
   3   4  -8  104.95    2.72
   3   4  -8  107.27    2.65
  -3  -4   8  106.88    2.69
  -3  -4   8  104.02    2.68
  -3  -4   8  103.75    2.72
  -3  -4   8  104.45    2.45
   2   4  -8   71.61    2.16
   2   4  -8   74.95    2.00
   2   4  -8   72.38    1.74
  -2  -4   8   74.42    2.01
  -2  -4   8   70.11    1.97
  -2  -4   8   71.15    1.80
  -2  -4   8   71.31    1.90
   1   4  -8   64.38    1.86
   1   4  -8   67.08    1.65
  -1  -4   8   65.36    1.86
  -1  -4   8   63.12    1.68
   0   4  -8   46.34    1.29
   0   4  -8   45.18    1.45
   0   4  -8   43.87    1.44
   0  -4   8   44.72    1.35
   0  -4   8   44.77    1.45
  -1   4  -8   13.38    0.63
  -1   4  -8   11.71    0.68
  -1   4  -8   12.44    0.70
   1  -4   8   12.21    0.68
  -2   4  -8    3.18    0.45
  -2   4  -8    4.51    0.48
  -2   4  -8    4.25    0.44
  -3   4  -8   15.04    0.80
  -3   4  -8   14.68    0.82
  -4   4  -8    1.70    0.34
  -4   4  -8    1.81    0.33
   4  -4   8    1.82    0.32
  -5   4  -8    1.35    0.31
  -5   4  -8    0.87    0.33
   5  -4   8    1.19    0.31
   8   3  -8   20.72    1.00
   8   3  -8   21.24    1.10
  -8  -3   8   18.77    0.73
   7   3  -8   11.35    0.68
   7   3  -8   12.29    0.78
  -7  -3   8   10.59    0.49
  -7  -3   8   11.46    0.47
  -7  -3   8   11.25    0.46
   6   3  -8   22.50    0.90
   6   3  -8   23.91    1.05
   6   3  -8   21.63    0.68
   6   3  -8   22.09    0.73
  -6  -3   8   23.16    0.78
  -6  -3   8   22.45    0.73
  -6  -3   8   22.82    0.76
   5   3  -8   48.43    1.39
   5   3  -8   47.12    1.29
   5   3  -8   45.25    1.27
   5   3  -8   48.87    1.57
  -5  -3   8   49.76    1.36
  -5  -3   8   46.97    1.34
  -5  -3   8   43.05    1.50
   4   3  -8   96.87    2.38
   4   3  -8   98.44    2.57
   4   3  -8   98.52    2.35
   4   3  -8   93.10    2.35
  -4  -3   8   98.92    2.43
  -4  -3   8   95.32    2.41
  -4  -3   8   93.26    2.53
  -4  -3   8   95.60    2.27
   3   3  -8   31.46    1.01
   3   3  -8   31.10    1.02
  -3  -3   8   32.40    0.92
  -3  -3   8   31.54    1.04
  -3  -3   8   31.56    1.04
   2   3  -8    1.86    0.20
   2   3  -8    1.57    0.24
   2   3  -8    2.03    0.28
  -2  -3   8    1.84    0.28
  -2  -3   8    1.86    0.23
  -2  -3   8    1.43    0.21
   1   3  -8    6.39    0.44
   1   3  -8    7.15    0.36
   1   3  -8    6.74    0.46
  -1  -3   8    6.38    0.44
  -1  -3   8    6.14    0.43
  -1  -3   8    6.45    0.55
   0   3  -8   14.17    0.67
   0   3  -8   13.66    0.66
   0   3  -8   14.54    0.59
   0  -3   8   12.72    0.64
   0  -3   8   14.25    0.68
   0  -3   8   14.63    0.63
  -1   3  -8   12.03    0.65
  -1   3  -8   12.84    0.61
  -1   3  -8   15.71    0.81
   1  -3   8   12.04    0.62
   1  -3   8   11.34    0.63
  -2   3  -8    4.50    0.45
  -2   3  -8    4.57    0.42
  -2   3  -8    4.84    0.47
   2  -3   8    5.41    0.46
   2  -3   8    5.28    0.46
   2  -3   8    4.70    0.43
  -3   3  -8    0.40    0.20
  -3   3  -8    0.55    0.21
  -3   3  -8    0.35    0.19
   3  -3   8    0.43    0.18
  -4   3  -8    1.28    0.29
  -4   3  -8    1.89    0.42
  -4   3  -8    2.18    0.35
   4  -3   8    1.69    0.31
  -5   3  -8   15.25    0.91
  -5   3  -8   14.01    0.81
  -5   3  -8   15.98    0.85
   5  -3   8   15.67    0.83
  -6   3  -8    3.41    0.46
  -6   3  -8    2.35    0.43
  -6   3  -8    1.99    0.39
   6  -3   8    3.16    0.44
   8   2  -8    7.64    0.63
   8   2  -8    7.90    0.68
  -8  -2   8    7.92    0.54
   7   2  -8    0.09    0.19
   7   2  -8    0.08    0.19
  -7  -2   8    0.17    0.11
  -7  -2   8    0.33    0.12
  -7  -2   8    0.17    0.13
   6   2  -8    0.14    0.17
   6   2  -8    0.08    0.10
   6   2  -8    0.01    0.17
   6   2  -8    0.32    0.10
  -6  -2   8    0.00    0.11
  -6  -2   8    0.08    0.13
  -6  -2   8    0.17    0.12
   5   2  -8   38.43    1.32
   5   2  -8   37.72    1.05
   5   2  -8   34.03    1.03
   5   2  -8   36.67    1.18
  -5  -2   8   36.51    1.10
  -5  -2   8   37.12    1.10
  -5  -2   8   36.62    1.06
   4   2  -8    9.07    0.55
   4   2  -8    9.60    0.56
   4   2  -8    8.22    0.44
   4   2  -8    8.72    0.45
  -4  -2   8    9.36    0.49
  -4  -2   8    8.84    0.47
  -4  -2   8    9.20    0.42
   3   2  -8   64.74    1.76
   3   2  -8   69.77    1.78
   3   2  -8   67.32    1.68
  -3  -2   8   66.28    1.81
  -3  -2   8   66.81    1.79
  -3  -2   8   70.79    1.82
   2   2  -8   87.27    2.25
   2   2  -8   90.68    2.27
   2   2  -8   89.02    2.15
   2   2  -8   88.12    2.04
  -2  -2   8   89.43    2.27
  -2  -2   8   89.76    2.29
  -2  -2   8   92.53    2.20
   1   2  -8  103.04    2.41
   1   2  -8  103.27    2.57
   1   2  -8   98.30    2.52
  -1  -2   8  101.59    2.55
  -1  -2   8   98.86    2.53
  -1  -2   8  101.74    2.62
   0   2  -8   61.14    1.70
   0   2  -8   58.84    1.68
   0   2  -8   62.18    1.61
   0  -2   8   59.32    1.70
   0  -2   8   61.19    1.71
   0  -2   8   61.20    1.66
  -1   2  -8   37.85    1.23
  -1   2  -8   38.84    1.25
  -1   2  -8   39.23    1.18
   1  -2   8   38.43    1.24
   1  -2   8   37.97    1.24
   1  -2   8   38.97    1.24
  -2   2  -8   66.54    1.88
  -2   2  -8   64.31    1.84
  -2   2  -8   66.37    1.83
   2  -2   8   63.50    1.84
   2  -2   8   65.42    1.89
   2  -2   8   65.84    1.87
  -3   2  -8  150.26    3.75
  -3   2  -8  155.14    3.78
  -3   2  -8  151.97    3.78
   3  -2   8  154.12    3.78
   3  -2   8  155.59    3.94
  -4   2  -8   61.84    1.90
  -4   2  -8   61.73    1.86
  -4   2  -8   59.48    1.82
   4  -2   8   61.87    1.61
   4  -2   8   62.77    1.84
  -5   2  -8   50.76    1.99
  -5   2  -8   51.22    1.66
  -5   2  -8   49.46    1.62
   5  -2   8   49.81    1.67
   5  -2   8   49.72    1.60
  -6   2  -8   19.33    0.93
  -6   2  -8   19.00    1.03
  -6   2  -8   17.99    0.90
   6  -2   8   18.03    0.87
   6  -2   8   18.54    0.71
   8   1  -8   21.50    1.11
   8   1  -8   20.62    1.05
  -8  -1   8   20.87    0.66
  -8  -1   8   20.90    0.67
   7   1  -8   18.70    0.98
   7   1  -8   19.60    1.03
  -7  -1   8   18.09    0.76
  -7  -1   8   19.15    0.66
  -7  -1   8   17.69    0.74
   6   1  -8   49.31    1.66
   6   1  -8   50.23    1.59
   6   1  -8   47.96    1.27
  -6  -1   8   51.04    1.36
  -6  -1   8   49.10    1.35
  -6  -1   8   48.69    1.42
   5   1  -8  149.33    3.73
   5   1  -8  144.26    3.40
   5   1  -8  148.72    3.40
   5   1  -8  150.46    3.62
  -5  -1   8  147.78    3.46
  -5  -1   8  153.96    3.48
  -5  -1   8  144.96    3.47
   4   1  -8  144.49    3.34
   4   1  -8  139.07    3.34
   4   1  -8  149.79    3.57
   4   1  -8  146.45    3.43
  -4  -1   8  142.67    3.38
  -4  -1   8  143.09    3.34
  -4  -1   8  144.39    3.39
   3   1  -8   38.92    1.09
   3   1  -8   38.63    1.13
   3   1  -8   37.48    1.12
  -3  -1   8   37.74    1.08
  -3  -1   8   38.72    1.15
  -3  -1   8   37.09    1.13
   2   1  -8   85.25    2.16
   2   1  -8   85.50    2.16
   2   1  -8   84.94    2.02
   2   1  -8   86.63    2.16
  -2  -1   8   85.03    2.10
  -2  -1   8   85.12    2.17
  -2  -1   8   86.71    2.19
   1   1  -8   88.81    2.01
   1   1  -8   91.07    2.27
   1   1  -8   88.48    2.25
   1   1  -8   88.84    2.28
  -1  -1   8   90.41    2.21
  -1  -1   8   86.66    2.43
  -1  -1   8   90.87    2.28
   0   1  -8   40.35    1.22
   0   1  -8   40.79    1.14
   0   1  -8   37.31    1.19
   0  -1   8   39.97    1.18
   0  -1   8   38.50    1.20
   0  -1   8   39.77    1.22
  -1   1  -8  109.99    2.70
  -1   1  -8  102.42    2.65
  -1   1  -8  107.30    2.60
   1  -1   8  104.34    2.66
   1  -1   8  108.36    2.69
  -2   1  -8   13.12    0.41
  -2   1  -8   13.45    0.64
  -2   1  -8   12.56    0.62
  -2   1  -8   13.42    0.62
   2  -1   8   13.93    0.66
   2  -1   8   13.35    0.64
   2  -1   8   13.95    0.64
  -3   1  -8   19.03    0.80
  -3   1  -8   19.42    0.82
  -3   1  -8   17.63    0.80
  -3   1  -8   18.37    0.58
   3  -1   8   18.91    0.80
   3  -1   8   19.64    0.87
   3  -1   8   18.00    0.78
  -4   1  -8   15.98    0.74
  -4   1  -8   15.79    0.61
  -4   1  -8   15.88    0.80
  -4   1  -8   16.80    0.78
   4  -1   8   16.28    0.75
   4  -1   8   16.42    0.85
  -5   1  -8    0.00    0.15
  -5   1  -8    0.03    0.18
  -5   1  -8    0.15    0.16
   5  -1   8    0.26    0.15
   5  -1   8   -0.05    0.12
  -6   1  -8    2.30    0.37
  -6   1  -8    1.99    0.31
  -6   1  -8    1.61    0.34
   6  -1   8    3.11    0.36
   6  -1   8    2.55    0.31
  -7   1  -8    2.28    0.34
  -7   1  -8    2.25    0.40
  -7   1  -8    1.75    0.33
   7  -1   8    2.57    0.39
   7  -1   8    1.75    0.28
   8   0  -8   40.70    1.59
   8   0  -8   40.09    1.60
  -8   0   8   40.88    1.15
  -8   0   8   37.68    1.13
   7   0  -8   22.80    0.70
   7   0  -8   24.25    1.10
   7   0  -8   24.59    1.12
  -7   0   8   24.58    0.82
  -7   0   8   23.11    0.80
   6   0  -8   24.68    0.79
   6   0  -8   26.64    1.09
   6   0  -8   27.24    1.13
   6   0  -8   24.96    0.79
  -6   0   8   25.08    0.94
  -6   0   8   24.87    0.86
  -6   0   8   26.62    0.88
   5   0  -8    1.59    0.27
   5   0  -8    1.46    0.22
   5   0  -8    0.99    0.24
   5   0  -8    1.43    0.21
  -5   0   8    1.12    0.19
  -5   0   8    1.15    0.19
  -5   0   8    1.36    0.22
   4   0  -8  128.88    3.20
   4   0  -8  128.34    3.12
   4   0  -8  126.64    3.00
   4   0  -8  123.07    2.99
  -4   0   8  125.31    3.03
  -4   0   8  130.10    3.06
  -4   0   8  127.53    3.04
   3   0  -8    3.93    0.35
   3   0  -8    4.64    0.31
   3   0  -8    4.14    0.32
   3   0  -8    4.31    0.32
  -3   0   8    3.92    0.31
  -3   0   8    4.32    0.33
  -3   0   8    3.76    0.31
   2   0  -8   23.16    0.80
   2   0  -8   22.71    0.79
  -2   0   8   22.18    0.76
  -2   0   8   23.85    0.82
  -2   0   8   23.38    0.83
   1   0  -8   18.05    0.65
   1   0  -8   16.96    0.67
   1   0  -8   16.78    0.68
  -1   0   8   17.48    0.90
  -1   0   8   16.74    0.64
   0   0  -8    4.43    0.32
   0   0  -8    4.18    0.31
   0   0   8    4.22    0.33
   0   0   8    3.79    0.33
   0   0   8    3.97    0.32
  -1   0  -8    3.25    0.30
  -1   0  -8    2.95    0.32
   1   0   8    3.04    0.30
   1   0   8    2.82    0.30
   1   0   8    3.22    0.32
  -2   0  -8    2.89    0.31
  -2   0  -8    2.78    0.31
  -2   0  -8    3.14    0.22
  -2   0  -8    2.95    0.32
   2   0   8    3.11    0.32
   2   0   8    2.67    0.28
   2   0   8    2.65    0.31
  -3   0  -8   56.65    1.45
  -3   0  -8   56.72    1.63
  -3   0  -8   56.23    1.64
  -3   0  -8   57.26    1.65
   3   0   8   57.90    1.73
   3   0   8   58.44    1.65
   3   0   8   55.62    1.62
  -4   0  -8   14.62    0.68
  -4   0  -8   13.89    0.72
  -4   0  -8   13.42    0.58
  -4   0  -8   14.00    0.69
   4   0   8   11.53    1.02
   4   0   8   14.57    0.68
  -5   0  -8   26.13    0.91
  -5   0  -8   27.33    1.11
  -5   0  -8   27.10    1.01
  -5   0  -8   27.07    1.04
   5   0   8   28.31    0.99
   5   0   8   27.39    1.01
  -6   0  -8   15.94    0.94
  -6   0  -8   16.12    0.71
  -6   0  -8   14.99    0.75
  -6   0  -8   16.99    0.83
   6   0   8   16.51    0.91
   6   0   8   16.78    0.75
  -7   0  -8   22.02    0.95
  -7   0  -8   24.73    1.16
  -7   0  -8   23.23    1.00
   7   0   8   23.15    0.96
   7   0   8   23.45    0.95
  -8   0  -8   19.23    0.90
  -8   0  -8   19.00    1.05
  -8   0  -8   18.19    0.86
   8   0   8   18.87    0.91
   7  -1  -8    0.14    0.20
   7  -1  -8    0.32    0.23
  -7   1   8    0.09    0.15
  -7   1   8    0.05    0.13
   6  -1  -8    2.34    0.39
   6  -1  -8    1.45    0.20
   6  -1  -8    1.53    0.20
   6  -1  -8    1.52    0.31
  -6   1   8    2.14    0.30
  -6   1   8    1.83    0.27
   5  -1  -8   13.62    0.83
   5  -1  -8   15.85    0.78
   5  -1  -8   15.85    0.63
   5  -1  -8   16.12    0.80
  -5   1   8   15.63    0.67
  -5   1   8   14.31    0.68
  -5   1   8   15.17    0.65
   4  -1  -8   26.59    0.90
   4  -1  -8   27.35    0.91
   4  -1  -8   29.49    1.03
   4  -1  -8   28.29    1.04
  -4   1   8   28.07    0.94
  -4   1   8   27.69    0.95
  -4   1   8   26.71    0.94
   3  -1  -8    1.09    0.18
   3  -1  -8    1.15    0.22
   3  -1  -8    1.03    0.19
  -3   1   8    1.30    0.21
  -3   1   8    1.14    0.20
  -3   1   8    1.10    0.18
   2  -1  -8   22.42    0.79
   2  -1  -8   22.28    0.79
  -2   1   8   22.53    0.81
  -2   1   8   21.82    0.77
  -2   1   8   22.69    0.80
   1  -1  -8  155.54    3.70
   1  -1  -8  163.50    3.72
   1  -1  -8  160.90    3.69
  -1   1   8  155.28    3.66
  -1   1   8  156.93    3.72
  -1   1   8  158.06    3.72
   0  -1  -8   96.30    2.53
   0  -1  -8   91.97    2.30
   0  -1  -8   91.42    2.34
   0   1   8   91.19    2.32
   0   1   8   94.01    2.36
   0   1   8   96.27    2.38
  -1  -1  -8  104.22    2.60
  -1  -1  -8  106.18    2.56
  -1  -1  -8  103.06    2.59
   1   1   8  104.58    2.60
   1   1   8  105.09    2.60
  -2  -1  -8   83.77    2.14
  -2  -1  -8   83.08    2.16
  -2  -1  -8   83.70    2.17
   2   1   8   83.58    2.20
   2   1   8   83.59    2.16
   2   1   8   80.71    2.14
  -3  -1  -8  129.89    3.19
  -3  -1  -8  128.44    3.19
  -3  -1  -8  127.38    3.19
  -3  -1  -8  132.00    3.06
   3   1   8  132.76    3.30
   3   1   8  132.97    3.19
   3   1   8  133.74    3.42
  -4  -1  -8   97.33    2.49
  -4  -1  -8   95.22    2.38
  -4  -1  -8   94.60    2.52
  -4  -1  -8   97.06    2.50
   4   1   8   98.61    2.66
   4   1   8   95.98    2.62
   4   1   8   94.73    2.47
  -5  -1  -8   71.92    2.09
  -5  -1  -8   71.02    1.99
  -5  -1  -8   72.63    2.01
  -5  -1  -8   72.64    1.94
   5   1   8   72.81    1.97
   5   1   8   71.56    1.97
  -6  -1  -8   56.93    1.68
  -6  -1  -8   57.47    1.84
  -6  -1  -8   55.41    1.69
  -6  -1  -8   57.96    1.72
   6   1   8   60.46    1.77
   6   1   8   57.06    1.66
  -7  -1  -8   38.10    1.46
  -7  -1  -8   36.70    1.26
  -7  -1  -8   37.48    1.29
   7   1   8   37.17    1.34
   7   1   8   36.81    1.23
  -8  -1  -8   19.11    0.83
  -8  -1  -8   18.83    1.04
  -8  -1  -8   18.31    0.84
   8   1   8   16.76    1.22
   8   1   8   18.04    0.79
   7  -2  -8   21.63    1.11
   7  -2  -8   20.27    0.77
   7  -2  -8   22.72    1.10
  -7   2   8   21.07    0.84
  -7   2   8   22.47    0.88
   6  -2  -8   27.52    0.93
   6  -2  -8   29.05    1.25
   6  -2  -8   27.86    1.23
  -6   2   8   27.86    1.36
  -6   2   8   26.54    0.97
   5  -2  -8   10.78    0.68
   5  -2  -8   10.45    0.54
   5  -2  -8   10.23    0.65
  -5   2   8   10.22    0.54
  -5   2   8   11.27    0.60
   4  -2  -8  155.06    3.73
   4  -2  -8  157.40    3.61
   4  -2  -8  143.76    3.57
   4  -2  -8  153.13    3.74
  -4   2   8  145.67    3.63
  -4   2   8  146.68    3.67
  -4   2   8  154.71    3.65
   3  -2  -8   31.13    1.02
   3  -2  -8   32.65    1.04
   3  -2  -8   32.64    1.08
  -3   2   8   30.40    1.15
  -3   2   8   30.52    1.03
  -3   2   8   32.36    1.07
   2  -2  -8   76.02    1.92
   2  -2  -8   72.32    1.93
   2  -2  -8   71.49    1.92
  -2   2   8   72.29    1.94
  -2   2   8   72.30    1.91
  -2   2   8   73.84    1.96
   1  -2  -8  140.81    3.40
  -1   2   8  141.15    3.37
  -1   2   8  142.74    3.41
  -1   2   8  146.91    3.44
   0  -2  -8  112.84    2.85
   0  -2  -8  117.14    2.87
   0  -2  -8  120.36    2.84
   0   2   8  119.90    2.89
   0   2   8  115.50    2.83
   0   2   8  117.03    2.87
  -1  -2  -8   25.63    0.87
  -1  -2  -8   24.65    0.88
   1   2   8   25.12    0.88
   1   2   8   24.38    0.88
   1   2   8   26.27    0.91
  -2  -2  -8  144.89    3.41
  -2  -2  -8  143.87    3.44
  -2  -2  -8  141.73    3.43
   2   2   8  143.24    3.44
   2   2   8  144.03    3.47
   2   2   8  143.21    3.43
  -3  -2  -8   41.23    1.27
  -3  -2  -8   41.20    1.28
   3   2   8   42.16    1.28
   3   2   8   41.82    1.46
   3   2   8   43.50    1.36
  -4  -2  -8   36.78    1.19
  -4  -2  -8   37.54    1.24
  -4  -2  -8   37.72    1.21
  -4  -2  -8   37.48    1.16
   4   2   8   37.20    1.31
   4   2   8   38.37    1.20
   4   2   8   38.11    1.20
  -5  -2  -8    7.71    0.50
  -5  -2  -8    7.84    0.49
  -5  -2  -8    7.67    0.54
   5   2   8    7.99    0.58
   5   2   8    7.91    0.48
   5   2   8    7.86    0.48
  -6  -2  -8   17.50    0.77
  -6  -2  -8   18.47    0.80
  -6  -2  -8   18.29    0.93
  -6  -2  -8   18.17    0.88
   6   2   8   17.68    0.86
   6   2   8   17.02    0.74
  -7  -2  -8    0.28    0.21
  -7  -2  -8    0.29    0.18
  -7  -2  -8    0.84    0.36
   7   2   8    0.62    0.20
   7   2   8    0.44    0.21
  -8  -2  -8    0.11    0.22
  -8  -2  -8    0.19    0.21
  -8  -2  -8    0.06    0.17
   8   2   8    0.29    0.18
   8   2   8    0.29    0.19
   6  -3  -8   10.82    0.77
   6  -3  -8   11.24    0.96
   6  -3  -8   10.09    0.58
  -6   3   8   11.53    0.66
  -6   3   8   10.47    0.59
   5  -3  -8   12.11    0.72
   5  -3  -8   12.52    0.62
   5  -3  -8   13.03    0.79
  -5   3   8   13.26    0.82
  -5   3   8   13.33    0.66
   4  -3  -8   12.09    0.67
   4  -3  -8   12.52    0.63
  -4   3   8   12.31    0.64
  -4   3   8   13.94    0.69
   3  -3  -8   40.22    1.32
   3  -3  -8   40.42    1.26
   3  -3  -8   38.25    1.23
  -3   3   8   41.22    1.30
  -3   3   8   38.69    1.26
  -3   3   8   37.75    1.25
   2  -3  -8   18.11    0.70
   2  -3  -8   18.74    0.76
   2  -3  -8   18.31    0.74
  -2   3   8   17.69    0.73
  -2   3   8   18.40    0.75
  -2   3   8   17.26    0.77
   1  -3  -8    5.01    0.40
   1  -3  -8    4.64    0.37
  -1   3   8    4.99    0.39
  -1   3   8    5.19    0.41
  -1   3   8    4.79    0.36
   0  -3  -8    6.14    0.42
   0  -3  -8    6.04    0.41
   0   3   8    6.24    0.39
   0   3   8    5.90    0.43
   0   3   8    5.96    0.41
  -1  -3  -8   10.47    0.53
  -1  -3  -8   10.31    0.54
   1   3   8   10.02    0.52
   1   3   8   10.61    0.55
   1   3   8    9.99    0.52
  -2  -3  -8    3.14    0.33
  -2  -3  -8    3.15    0.33
  -2  -3  -8    3.46    0.33
   2   3   8    3.77    0.33
   2   3   8    3.93    0.35
   2   3   8    3.69    0.36
  -3  -3  -8   54.81    1.59
  -3  -3  -8   54.75    1.56
  -3  -3  -8   53.88    1.57
   3   3   8   55.61    1.58
   3   3   8   54.36    1.57
   3   3   8   55.47    1.63
  -4  -3  -8   35.78    1.16
  -4  -3  -8   35.21    1.17
  -4  -3  -8   35.38    1.18
   4   3   8   35.06    1.15
   4   3   8   36.78    1.21
   4   3   8   35.37    1.24
  -5  -3  -8   55.08    1.66
  -5  -3  -8   56.93    1.64
  -5  -3  -8   57.21    1.64
   5   3   8   55.40    1.77
   5   3   8   55.59    1.61
   5   3   8   56.67    1.61
  -6  -3  -8   51.73    1.66
  -6  -3  -8   54.52    1.61
  -6  -3  -8   54.25    1.70
   6   3   8   56.01    1.77
   6   3   8   53.95    1.56
  -7  -3  -8   36.97    1.38
  -7  -3  -8   39.16    1.29
  -7  -3  -8   38.33    1.49
   7   3   8   39.97    1.48
   7   3   8   36.72    1.20
  -8  -3  -8   18.11    0.80
  -8  -3  -8   15.98    0.76
  -8  -3  -8   18.26    0.96
   8   3   8   18.55    0.75
   8   3   8   20.27    1.01
   6  -4  -8    0.65    0.24
   6  -4  -8    0.96    0.30
  -6   4   8    0.83    0.28
  -6   4   8    1.28    0.28
   5  -4  -8    0.56    0.24
   5  -4  -8    0.31    0.20
   5  -4  -8    0.34    0.19
  -5   4   8    0.38    0.22
  -5   4   8    0.27    0.20
   4  -4  -8   27.16    1.04
   4  -4  -8   26.85    1.03
  -4   4   8   28.27    1.06
  -4   4   8   27.92    1.10
   3  -4  -8    3.39    0.35
   3  -4  -8    3.14    0.38
  -3   4   8    3.37    0.39
  -3   4   8    3.42    0.42
   2  -4  -8   13.70    0.60
   2  -4  -8   13.85    0.69
  -2   4   8   13.79    0.71
  -2   4   8   12.80    0.66
   1  -4  -8   29.09    1.04
  -1   4   8   27.92    1.02
  -1   4   8   26.36    1.03
   0  -4  -8  101.40    2.66
   0  -4  -8  106.32    2.68
   0   4   8  107.01    2.71
   0   4   8  102.39    2.62
  -1  -4  -8   46.31    1.42
  -1  -4  -8   44.39    1.40
  -1  -4  -8   47.34    1.40
   1   4   8   47.10    1.39
   1   4   8   46.31    1.41
   1   4   8   46.91    1.43
  -2  -4  -8   76.88    2.08
  -2  -4  -8   77.62    2.06
  -2  -4  -8   77.45    2.10
   2   4   8   80.08    2.12
   2   4   8   77.34    2.09
   2   4   8   78.22    2.10
  -3  -4  -8   46.74    1.42
  -3  -4  -8   46.55    1.42
  -3  -4  -8   46.40    1.39
   3   4   8   47.59    1.43
   3   4   8   45.41    1.41
   3   4   8   46.89    1.46
  -4  -4  -8   88.50    2.32
  -4  -4  -8   87.71    2.32
  -4  -4  -8   87.77    2.33
   4   4   8   86.78    2.41
   4   4   8   90.97    2.33
   4   4   8   88.17    2.39
  -5  -4  -8   19.20    0.81
  -5  -4  -8   20.63    0.85
  -5  -4  -8   20.06    0.81
   5   4   8   19.44    0.79
   5   4   8   20.78    0.81
   5   4   8   18.53    0.90
  -6  -4  -8   82.02    2.21
  -6  -4  -8   78.12    2.18
  -6  -4  -8   82.14    2.28
   6   4   8   83.13    2.18
   6   4   8   83.53    2.42
  -7  -4  -8   35.39    1.70
  -7  -4  -8   34.45    1.41
  -7  -4  -8   36.96    1.59
   7   4   8   37.28    1.43
   7   4   8   34.99    1.15
  -8  -4  -8   10.13    0.59
  -8  -4  -8   11.03    0.61
  -8  -4  -8   11.07    0.75
   8   4   8   11.09    0.56
   8   4   8   12.52    0.83
   5  -5  -8    8.03    0.70
   5  -5  -8   10.11    0.67
  -5   5   8   10.78    0.70
  -5   5   8   12.05    0.74
   4  -5  -8   19.96    0.85
   4  -5  -8   19.50    0.90
  -4   5   8   20.75    1.03
  -4   5   8   20.85    0.98
   3  -5  -8   38.56    1.22
   3  -5  -8   38.50    1.34
  -3   5   8   35.45    1.75
  -3   5   8   39.61    1.39
   2  -5  -8   27.08    1.06
   2  -5  -8   27.32    0.91
  -2   5   8   27.38    1.10
  -2   5   8   26.63    1.10
   1  -5  -8   76.69    1.92
   1  -5  -8   77.05    2.17
  -1   5   8   76.12    2.19
  -1   5   8   75.52    2.16
   0  -5  -8   39.04    1.33
   0  -5  -8   42.30    1.38
   0  -5  -8   42.85    1.14
   0   5   8   41.59    1.39
   0   5   8   38.60    1.28
   0   5   8   43.60    1.41
  -1  -5  -8   28.92    1.05
   1   5   8   27.12    1.03
   1   5   8   25.68    1.34
  -2  -5  -8   48.55    1.51
  -2  -5  -8   47.58    1.50
  -2  -5  -8   48.59    1.46
   2   5   8   51.07    1.55
   2   5   8   47.88    1.48
   2   5   8   48.50    1.54
  -3  -5  -8   21.93    0.88
  -3  -5  -8   21.20    0.84
  -3  -5  -8   22.12    0.90
   3   5   8   22.30    0.90
   3   5   8   21.54    0.90
  -4  -5  -8   54.12    1.64
  -4  -5  -8   56.04    1.61
  -4  -5  -8   53.75    1.64
   4   5   8   54.65    1.64
   4   5   8   57.43    2.16
  -5  -5  -8   14.53    0.71
  -5  -5  -8   15.26    0.72
  -5  -5  -8   16.44    0.75
   5   5   8   14.51    0.78
   5   5   8   16.81    0.74
  -6  -5  -8    9.03    0.56
  -6  -5  -8    8.65    0.56
  -6  -5  -8   10.30    0.61
   6   5   8    8.73    0.54
   6   5   8    7.86    0.87
  -7  -5  -8    2.28    0.32
  -7  -5  -8    1.91    0.27
  -7  -5  -8    1.58    0.36
   7   5   8    2.38    0.41
   7   5   8    1.66    0.26
  -8  -5  -8    0.29    0.23
  -8  -5  -8    0.78    0.22
   8   5   8    0.51    0.23
   8   5   8    0.53    0.19
   4  -6  -8    1.56    0.34
  -4   6   8    1.21    0.28
   3  -6  -8   14.54    0.82
  -3   6   8   14.62    0.86
   2  -6  -8    0.84    0.22
   2  -6  -8    0.73    0.22
  -2   6   8    0.99    0.28
   1  -6  -8    1.08    0.27
   1  -6  -8    1.34    0.19
  -1   6   8    1.22    0.33
  -1   6   8    0.91    0.26
   0  -6  -8    0.85    0.24
   0  -6  -8    1.06    0.15
   0   6   8    0.77    0.20
   0   6   8    0.93    0.27
  -1  -6  -8    8.50    0.56
  -1  -6  -8    7.93    0.59
   1   6   8    8.79    0.58
   1   6   8    8.18    0.61
  -2  -6  -8   19.98    1.03
   2   6   8   21.10    0.92
   2   6   8   19.62    1.03
   2   6   8   18.85    0.84
  -3  -6  -8    0.15    0.17
  -3  -6  -8    0.22    0.17
   3   6   8   -0.02    0.15
   3   6   8    0.28    0.20
  -4  -6  -8   25.39    1.02
  -4  -6  -8   26.68    1.04
  -4  -6  -8   27.09    0.99
   4   6   8   26.18    1.03
   4   6   8   25.14    1.05
  -5  -6  -8   10.86    0.65
  -5  -6  -8    9.97    0.59
  -5  -6  -8    9.82    0.61
   5   6   8    9.46    0.69
   5   6   8   10.97    0.62
  -6  -6  -8   52.24    1.64
  -6  -6  -8   55.02    1.67
  -6  -6  -8   52.60    1.71
  -6  -6  -8   54.23    1.64
   6   6   8   52.99    1.68
   6   6   8   56.01    1.89
  -7  -6  -8   35.85    1.71
  -7  -6  -8   37.26    1.27
  -7  -6  -8   35.75    1.25
   7   6   8   35.12    1.20
   7   6   8   37.38    1.51
  -8  -6  -8   14.31    0.78
  -8  -6  -8   14.39    0.73
  -8  -6  -8   14.71    0.71
   8   6   8   14.03    0.91
   8   6   8   12.78    0.65
  -2   7   8    4.87    0.58
   1  -7  -8   20.72    1.15
  -1   7   8   20.58    1.03
   0  -7  -8   10.93    0.76
   0   7   8    9.30    0.69
  -1  -7  -8   17.85    0.96
   1   7   8   18.24    0.93
  -2  -7  -8   45.06    1.88
   2   7   8   43.30    1.53
  -3  -7  -8   17.68    0.86
  -3  -7  -8   18.32    0.96
   3   7   8   17.89    0.88
  -4  -7  -8   54.35    1.73
  -4  -7  -8   53.45    2.20
  -4  -7  -8   51.79    1.45
   4   7   8   57.69    1.75
  -5  -7  -8   38.32    1.28
  -5  -7  -8   36.40    1.32
  -5  -7  -8   38.93    1.37
  -5  -7  -8   37.47    1.17
   5   7   8   38.42    1.33
  -6  -7  -8   33.07    1.18
  -6  -7  -8   33.01    1.23
  -6  -7  -8   32.43    1.12
  -6  -7  -8   32.86    1.22
   6   7   8   33.90    1.20
   6   7   8   32.42    1.40
  -7  -7  -8   22.13    1.03
  -7  -7  -8   20.20    0.90
  -7  -7  -8   21.29    0.95
   7   7   8   22.95    1.29
   1  -8  -8    5.50    0.61
  -1   8   8    5.72    0.64
   0  -8  -8   12.74    0.83
   0   8   8   12.27    0.84
  -1  -8  -8   18.11    0.95
   1   8   8   17.35    0.97
  -2  -8  -8    5.21    0.57
   2   8   8    4.48    0.80
  -3  -8  -8   20.86    1.02
   3   8   8   20.88    1.01
  -4  -8  -8    6.66    0.59
   4   8   8    7.09    0.60
  -5  -8  -8    7.04    0.61
  -5  -8  -8    7.70    0.62
  -5  -8  -8    7.38    0.39
   5   8   8    8.20    0.62
   5   8   8    8.02    0.66
  -6  -8  -8   -0.22    0.26
  -6  -8  -8    0.60    0.38
  -6  -8  -8    0.81    0.25
   6   8   8    0.33    0.22
   6   8   8    0.14    0.20
  -2  -9  -8    5.68    0.62
   2   9   8    5.52    0.65
  -3  -9  -8    1.08    0.34
   3   9   8    1.47    0.36
  -4  -9  -8    4.14    0.56
   4   9   8    4.75    0.71
   6   7  -9    1.02    0.31
   6   7  -9    1.31    0.25
  -6  -7   9    1.07    0.25
  -6  -7   9    1.36    0.24
   5   7  -9    3.79    0.42
   5   7  -9    3.69    0.48
  -5  -7   9    4.05    0.47
  -5  -7   9    4.24    0.45
   4   7  -9    0.17    0.20
   4   7  -9    0.34    0.30
  -4  -7   9    0.18    0.22
  -4  -7   9    0.36    0.21
   3   7  -9    0.29    0.21
  -3  -7   9    0.21    0.19
  -3  -7   9    0.34    0.25
   2   7  -9    2.34    0.40
  -2  -7   9    1.95    0.29
  -2  -7   9    2.36    0.39
   1   7  -9    2.73    0.30
   1   7  -9    2.93    0.69
  -1  -7   9    2.37    0.40
   0   7  -9    5.75    0.61
   0   7  -9    4.45    0.43
   0  -7   9    5.20    0.60
   7   6  -9    1.80    0.40
   7   6  -9    1.46    0.22
  -7  -6   9    1.57    0.24
  -7  -6   9    1.81    0.26
   6   6  -9    9.56    0.52
   6   6  -9    9.96    0.72
  -6  -6   9    9.85    0.58
  -6  -6   9    9.12    0.55
   5   6  -9   14.47    0.98
   5   6  -9   12.86    0.66
  -5  -6   9   13.71    0.70
  -5  -6   9   14.40    0.73
   4   6  -9   27.44    1.05
   4   6  -9   26.90    1.12
  -4  -6   9   25.32    1.05
  -4  -6   9   27.98    1.09
  -4  -6   9   26.40    1.04
   3   6  -9   35.76    1.25
  -3  -6   9   32.93    1.25
  -3  -6   9   33.75    1.17
   2   6  -9   29.24    0.83
   2   6  -9   29.14    1.15
  -2  -6   9   28.72    1.15
  -2  -6   9   27.53    0.97
   1   6  -9   18.48    0.68
   1   6  -9   18.99    0.92
  -1  -6   9   18.28    0.95
  -1  -6   9   17.32    0.70
   0   6  -9   21.10    0.82
   0   6  -9   21.03    1.04
   0  -6   9   21.45    1.05
  -1   6  -9   11.74    0.67
  -1   6  -9   13.20    0.83
   1  -6   9   12.75    0.83
  -2   6  -9   31.92    1.38
  -2   6  -9   32.88    1.47
   7   5  -9   32.56    1.40
  -7  -5   9   32.40    1.04
  -7  -5   9   33.22    1.08
   6   5  -9   37.28    1.42
   6   5  -9   34.27    1.07
  -6  -5   9   35.90    1.17
  -6  -5   9   32.89    1.12
   5   5  -9   43.88    1.54
   5   5  -9   41.14    1.29
  -5  -5   9   42.73    1.36
  -5  -5   9   40.43    1.32
   4   5  -9    8.72    0.60
   4   5  -9    7.90    0.51
  -4  -5   9    7.63    0.54
  -4  -5   9    8.05    0.53
  -4  -5   9    8.36    0.55
   3   5  -9   19.93    0.86
  -3  -5   9   21.61    0.91
  -3  -5   9   20.05    0.83
  -3  -5   9   19.70    0.86
  -3  -5   9   19.76    0.65
   2   5  -9    1.22    0.17
   2   5  -9    0.96    0.25
  -2  -5   9    0.79    0.24
  -2  -5   9    1.34    0.27
  -2  -5   9    0.64    0.19
   1   5  -9    3.10    0.43
   1   5  -9    3.56    0.29
  -1  -5   9    2.35    0.36
  -1  -5   9    3.59    0.31
   0   5  -9    7.59    0.46
   0   5  -9    7.13    0.58
   0  -5   9    7.38    0.38
   0  -5   9    7.28    0.61
  -1   5  -9    0.46    0.19
  -1   5  -9    0.07    0.18
  -2   5  -9    2.76    0.43
  -2   5  -9    1.93    0.35
  -3   5  -9    3.60    0.51
  -3   5  -9    2.95    0.48
   3  -5   9    1.97    0.35
   8   4  -9    2.49    0.44
  -8  -4   9    1.89    0.27
   7   4  -9   10.33    0.75
  -7  -4   9    9.03    0.46
  -7  -4   9    8.66    0.42
  -7  -4   9    9.32    0.48
   6   4  -9    3.69    0.29
   6   4  -9    3.96    0.49
   6   4  -9    2.68    0.28
  -6  -4   9    4.26    0.35
  -6  -4   9    3.64    0.35
  -6  -4   9    3.35    0.28
   5   4  -9    1.62    0.33
   5   4  -9    1.33    0.22
   5   4  -9    1.69    0.26
  -5  -4   9    1.42    0.24
  -5  -4   9    1.43    0.24
  -5  -4   9    1.55    0.20
   4   4  -9    0.05    0.15
   4   4  -9    0.26    0.20
   4   4  -9    0.38    0.15
  -4  -4   9    0.20    0.11
  -4  -4   9   -0.02    0.16
  -4  -4   9    0.16    0.13
  -4  -4   9   -0.05    0.15
   3   4  -9    6.24    0.53
   3   4  -9    5.20    0.42
  -3  -4   9    5.32    0.33
  -3  -4   9    5.77    0.45
  -3  -4   9    6.20    0.46
  -3  -4   9    5.69    0.44
   2   4  -9    8.96    0.56
   2   4  -9    8.73    0.40
  -2  -4   9    7.88    0.48
  -2  -4   9    8.74    0.57
  -2  -4   9    9.30    0.56
  -2  -4   9    8.25    0.61
   1   4  -9    2.02    0.25
   1   4  -9    1.70    0.29
  -1  -4   9    1.84    0.29
  -1  -4   9    2.19    0.33
  -1  -4   9    2.10    0.27
   0   4  -9    1.44    0.22
   0   4  -9    1.68    0.31
   0   4  -9    1.22    0.27
   0  -4   9    0.72    0.37
   0  -4   9    1.37    0.22
   0  -4   9    1.14    0.25
  -1   4  -9    0.92    0.25
  -1   4  -9    0.94    0.26
  -1   4  -9    1.13    0.22
   1  -4   9    0.93    0.25
   1  -4   9    1.57    0.27
  -2   4  -9   65.78    1.93
  -2   4  -9   66.20    2.04
   2  -4   9   65.70    2.02
  -3   4  -9    6.90    0.61
  -3   4  -9    7.42    0.61
   3  -4   9    7.13    0.60
  -4   4  -9   10.03    0.74
  -4   4  -9   10.39    0.75
   4  -4   9    9.66    0.69
   8   3  -9    4.72    0.56
   8   3  -9    4.54    0.51
  -8  -3   9    4.12    0.42
   7   3  -9   12.44    0.71
   7   3  -9   12.83    0.83
  -7  -3   9   12.50    0.53
  -7  -3   9   12.39    0.53
  -7  -3   9   11.54    0.54
   6   3  -9   24.65    0.94
   6   3  -9   24.46    1.13
   6   3  -9   21.00    0.84
  -6  -3   9   23.59    0.78
  -6  -3   9   25.28    0.86
  -6  -3   9   23.84    0.84
   5   3  -9   67.10    2.01
   5   3  -9   62.20    1.80
   5   3  -9   64.54    1.76
   5   3  -9   64.01    1.70
  -5  -3   9   64.18    1.75
  -5  -3   9   63.76    1.65
  -5  -3   9   65.90    1.78
   4   3  -9    7.86    0.69
   4   3  -9    9.21    0.49
   4   3  -9    9.26    0.59
  -4  -3   9    8.83    0.52
  -4  -3   9    8.55    0.49
  -4  -3   9    7.94    0.55
  -4  -3   9    8.30    0.43
   3   3  -9   79.80    2.68
   3   3  -9   87.58    2.23
  -3  -3   9   87.28    2.27
  -3  -3   9   82.80    2.45
  -3  -3   9   86.21    2.26
   2   3  -9   83.46    2.57
   2   3  -9   80.66    2.03
   2   3  -9   84.59    2.22
  -2  -3   9   83.12    2.22
  -2  -3   9   82.74    2.08
  -2  -3   9   82.54    2.23
   1   3  -9   78.70    2.14
   1   3  -9   82.04    1.97
  -1  -3   9   75.23    2.13
  -1  -3   9   77.09    2.15
  -1  -3   9   78.71    2.05
   0   3  -9   80.65    2.05
   0   3  -9   78.27    2.70
   0   3  -9   79.82    2.21
   0  -3   9   80.62    2.14
   0  -3   9   81.62    2.23
   0  -3   9   77.81    2.19
  -1   3  -9  103.83    2.72
  -1   3  -9   98.75    2.68
  -1   3  -9  104.38    2.58
   1  -3   9  102.48    2.67
   1  -3   9   95.81    3.08
  -2   3  -9   39.65    1.42
  -2   3  -9   43.43    1.38
  -2   3  -9   41.03    1.41
   2  -3   9   41.11    1.41
   2  -3   9   43.59    1.46
   2  -3   9   41.37    1.64
  -3   3  -9   86.88    2.46
  -3   3  -9   86.79    2.48
  -3   3  -9   87.19    2.43
   3  -3   9   87.07    2.48
  -4   3  -9   24.56    1.25
  -4   3  -9   22.64    1.05
  -4   3  -9   24.96    1.10
   4  -3   9   24.38    0.77
   4  -3   9   25.30    1.08
  -5   3  -9    5.90    0.59
  -5   3  -9    6.43    0.65
   5  -3   9    6.22    0.56
   8   2  -9   28.26    1.29
   8   2  -9   24.86    1.16
   7   2  -9   31.76    1.34
   7   2  -9   32.28    1.24
  -7  -2   9   30.44    1.04
  -7  -2   9   32.24    0.97
  -7  -2   9   29.14    0.94
   6   2  -9   33.02    0.97
   6   2  -9   34.36    1.21
   6   2  -9   33.42    1.51
  -6  -2   9   34.25    1.06
  -6  -2   9   33.36    1.05
  -6  -2   9   35.66    1.08
   5   2  -9   58.66    1.57
   5   2  -9   56.98    1.56
   5   2  -9   58.59    1.68
   5   2  -9   60.36    1.87
  -5  -2   9   59.96    1.58
  -5  -2   9   58.01    1.62
  -5  -2   9   61.49    1.65
   4   2  -9   37.44    1.16
   4   2  -9   41.40    1.37
   4   2  -9   39.87    1.18
   4   2  -9   39.76    1.19
  -4  -2   9   40.63    1.23
  -4  -2   9   39.31    1.14
  -4  -2   9   38.60    1.21
   3   2  -9    7.83    0.46
   3   2  -9    8.53    0.39
   3   2  -9    8.57    0.48
  -3  -2   9    8.24    0.50
  -3  -2   9    8.13    0.42
  -3  -2   9    8.89    0.50
   2   2  -9   16.08    0.49
   2   2  -9   16.31    0.62
   2   2  -9   16.55    0.70
   2   2  -9   16.10    0.69
  -2  -2   9   16.66    0.64
  -2  -2   9   16.62    0.72
  -2  -2   9   15.76    0.70
   1   2  -9   19.55    0.79
   1   2  -9   19.63    0.81
   1   2  -9   20.90    0.72
  -1  -2   9   20.18    0.83
  -1  -2   9   19.66    0.80
  -1  -2   9   20.21    0.76
   0   2  -9   13.20    0.57
   0   2  -9   13.20    0.66
   0   2  -9   12.77    0.64
   0  -2   9   12.40    0.64
   0  -2   9   12.89    0.61
   0  -2   9   14.02    0.67
  -1   2  -9   46.31    1.35
  -1   2  -9   45.35    1.43
  -1   2  -9   44.73    1.41
   1  -2   9   44.72    1.41
   1  -2   9   43.51    1.42
   1  -2   9   44.48    1.43
  -2   2  -9   23.14    0.91
  -2   2  -9   23.15    0.95
  -2   2  -9   24.02    0.98
   2  -2   9   23.50    0.99
   2  -2   9   22.78    0.96
   2  -2   9   24.71    0.97
  -3   2  -9    0.06    0.17
  -3   2  -9    0.34    0.20
  -3   2  -9    0.27    0.19
   3  -2   9    0.56    0.23
   3  -2   9    0.71    0.20
  -4   2  -9    1.02    0.28
  -4   2  -9    1.22    0.29
  -4   2  -9    1.20    0.31
   4  -2   9    1.61    0.28
   4  -2   9    1.23    0.20
  -5   2  -9    1.33    0.28
  -5   2  -9    1.67    0.31
  -5   2  -9    1.18    0.30
   5  -2   9    1.30    0.20
   5  -2   9    1.40    0.27
  -6   2  -9    5.47    0.62
  -6   2  -9    6.08    0.57
  -6   2  -9    5.74    0.63
   6  -2   9    5.67    0.55
   6  -2   9    6.01    0.41
   8   1  -9    4.64    0.56
   8   1  -9    5.61    0.58
  -8  -1   9    4.85    0.34
  -8  -1   9    5.52    0.33
   7   1  -9    0.86    0.27
   7   1  -9    0.46    0.23
  -7  -1   9    0.37    0.16
  -7  -1   9    0.68    0.15
   6   1  -9    0.39    0.22
   6   1  -9    0.54    0.29
   6   1  -9    0.69    0.14
  -6  -1   9    0.52    0.16
  -6  -1   9    0.68    0.18
  -6  -1   9    0.49    0.15
   5   1  -9    0.69    0.17
   5   1  -9    0.88    0.17
   5   1  -9    0.92    0.22
   5   1  -9    0.91    0.24
  -5  -1   9    0.90    0.18
  -5  -1   9    1.09    0.20
  -5  -1   9    0.88    0.18
   4   1  -9   12.17    0.56
   4   1  -9   12.78    0.58
   4   1  -9   13.82    0.70
   4   1  -9   11.84    0.55
  -4  -1   9   13.05    0.60
  -4  -1   9   12.02    0.58
  -4  -1   9   12.68    0.56
   3   1  -9    5.84    0.40
   3   1  -9    5.33    0.34
   3   1  -9    5.15    0.36
  -3  -1   9    5.72    0.40
  -3  -1   9    5.33    0.39
  -3  -1   9    4.89    0.34
   2   1  -9   11.53    0.56
   2   1  -9   12.00    0.54
   2   1  -9   12.22    0.46
   2   1  -9   12.26    0.58
  -2  -1   9   12.28    0.60
  -2  -1   9   11.82    0.57
  -2  -1   9   11.88    0.53
   1   1  -9   38.43    1.11
   1   1  -9   37.12    1.18
   1   1  -9   38.10    1.21
   1   1  -9   36.96    0.94
  -1  -1   9   38.20    1.15
  -1  -1   9   37.60    1.21
  -1  -1   9   36.46    1.19
   0   1  -9    2.92    0.33
   0   1  -9    2.71    0.29
   0   1  -9    2.97    0.32
   0  -1   9    2.78    0.33
   0  -1   9    3.46    0.33
   0  -1   9    2.60    0.32
  -1   1  -9   36.88    1.22
  -1   1  -9   37.92    1.24
  -1   1  -9   38.21    1.17
   1  -1   9   38.53    1.25
   1  -1   9   37.11    1.23
   1  -1   9   36.54    1.22
  -2   1  -9   53.69    1.56
  -2   1  -9   53.08    1.61
  -2   1  -9   52.29    1.59
   2  -1   9   52.56    1.58
   2  -1   9   52.40    1.62
  -3   1  -9  123.33    3.19
  -3   1  -9  128.16    3.19
  -3   1  -9  123.35    2.81
  -3   1  -9  124.73    3.18
   3  -1   9  125.85    3.59
   3  -1   9  126.11    3.19
  -4   1  -9   31.15    1.17
  -4   1  -9   32.60    0.93
  -4   1  -9   31.81    1.22
  -4   1  -9   32.09    1.20
   4  -1   9   33.14    1.19
   4  -1   9   32.12    1.48
  -5   1  -9   13.73    0.96
  -5   1  -9   13.61    0.74
  -5   1  -9   13.04    0.78
   5  -1   9   12.85    0.70
   5  -1   9   13.43    0.63
  -6   1  -9   16.12    0.86
  -6   1  -9   18.11    0.98
  -6   1  -9   16.94    0.88
   6  -1   9   17.98    0.77
   6  -1   9   17.03    0.83
  -7   1  -9   18.61    1.46
  -7   1  -9   22.23    1.15
  -7   1  -9   23.76    1.05
   7  -1   9   21.73    0.97
   7  -1   9   22.40    0.92
   7   0  -9   12.95    0.55
   7   0  -9   14.57    0.54
   7   0  -9   14.61    0.89
   7   0  -9   15.25    0.87
  -7   0   9   15.13    0.63
  -7   0   9   15.47    0.65
   6   0  -9   18.93    0.91
   6   0  -9   18.13    0.67
   6   0  -9   18.55    1.06
  -6   0   9   19.25    0.75
  -6   0   9   19.29    0.74
   5   0  -9   33.14    1.06
   5   0  -9   35.78    1.23
   5   0  -9   36.04    1.31
   5   0  -9   34.13    1.06
  -5   0   9   35.15    1.12
  -5   0   9   36.90    1.14
  -5   0   9   34.82    1.16
   4   0  -9   61.82    1.81
   4   0  -9   58.18    1.63
   4   0  -9   61.18    1.71
   4   0  -9   61.30    1.64
  -4   0   9   58.32    1.64
  -4   0   9   61.73    1.70
  -4   0   9   60.05    1.67
   3   0  -9   30.98    1.00
   3   0  -9   28.96    0.97
   3   0  -9   29.47    1.06
   3   0  -9   30.16    0.96
  -3   0   9   28.99    0.99
  -3   0   9   29.02    0.96
  -3   0   9   29.95    1.01
   2   0  -9   92.55    2.40
   2   0  -9   95.95    2.41
  -2   0   9   96.81    2.43
  -2   0   9   96.09    2.44
  -2   0   9   93.48    2.35
   1   0  -9  229.69    5.41
   1   0  -9  239.20    5.51
   1   0  -9  240.30    5.37
  -1   0   9  235.82    5.38
  -1   0   9  241.09    5.45
  -1   0   9  243.44    5.46
   0   0  -9  157.62    3.61
   0   0  -9  153.29    3.68
   0   0  -9  149.89    3.66
   0   0   9  158.66    3.71
   0   0   9  153.10    3.65
   0   0   9  151.49    3.68
  -1   0  -9  168.62    3.98
  -1   0  -9  168.44    3.90
   1   0   9  166.61    3.98
   1   0   9  165.88    3.98
   1   0   9  164.30    3.96
  -2   0  -9   15.48    0.51
  -2   0  -9   15.52    0.71
  -2   0  -9   14.87    0.69
   2   0   9   15.51    0.71
   2   0   9   14.83    0.69
   2   0   9   15.32    0.73
  -3   0  -9   96.17    2.28
  -3   0  -9   97.64    2.55
  -3   0  -9   97.43    2.54
  -3   0  -9   97.06    2.54
   3   0   9   91.68    2.79
   3   0   9   97.16    2.54
   3   0   9   97.32    2.64
  -4   0  -9   12.15    0.67
  -4   0  -9   12.57    0.53
  -4   0  -9   12.51    0.70
  -4   0  -9   11.87    0.65
   4   0   9   11.01    0.70
   4   0   9   12.90    0.67
  -5   0  -9   18.54    0.86
  -5   0  -9   20.17    0.95
  -5   0  -9   19.12    0.87
  -5   0  -9   19.25    0.73
   5   0   9   19.60    0.85
  -6   0  -9    8.78    0.53
  -6   0  -9    9.29    0.62
  -6   0  -9    9.92    0.72
  -6   0  -9   10.40    0.65
   6   0   9    9.13    0.59
   6   0   9    9.42    0.58
  -7   0  -9    8.60    0.72
  -7   0  -9    8.11    0.62
  -7   0  -9    7.95    0.61
   7   0   9    8.09    0.59
   7   0   9    8.04    0.56
   7  -1  -9   22.70    1.12
   7  -1  -9   23.42    1.14
  -7   1   9   23.28    0.88
  -7   1   9   21.86    0.83
   6  -1  -9   11.82    0.55
   6  -1  -9   12.66    0.78
   6  -1  -9   13.05    0.80
  -6   1   9   12.54    0.63
  -6   1   9   12.86    0.60
   5  -1  -9   23.27    1.00
   5  -1  -9   23.88    1.03
   5  -1  -9   22.71    0.83
   5  -1  -9   22.84    0.85
  -5   1   9   24.05    1.06
  -5   1   9   23.42    0.88
  -5   1   9   24.05    0.90
   4  -1  -9  110.52    2.84
   4  -1  -9  112.54    2.80
   4  -1  -9  107.92    2.67
   4  -1  -9  103.94    2.67
  -4   1   9  103.33    2.72
  -4   1   9  107.96    2.71
  -4   1   9  108.38    2.73
   3  -1  -9   27.56    0.98
   3  -1  -9   25.35    0.90
   3  -1  -9   26.00    0.92
  -3   1   9   26.43    0.95
  -3   1   9   25.78    0.98
  -3   1   9   25.99    0.92
   2  -1  -9   55.05    1.57
   2  -1  -9   56.77    1.59
  -2   1   9   55.18    1.58
  -2   1   9   54.80    1.55
  -2   1   9   56.45    1.61
   1  -1  -9   16.19    0.66
   1  -1  -9   14.81    0.66
   1  -1  -9   15.60    0.68
  -1   1   9   15.20    0.65
  -1   1   9   14.96    0.68
   0  -1  -9   40.26    1.24
   0  -1  -9   41.43    1.26
   0  -1  -9   40.77    1.20
   0   1   9   38.90    1.22
   0   1   9   37.53    1.23
   0   1   9   39.08    1.26
  -1  -1  -9    8.90    0.49
  -1  -1  -9    8.55    0.49
  -1  -1  -9    8.15    0.51
   1   1   9    9.13    0.51
   1   1   9    9.46    0.53
   1   1   9    9.46    0.53
  -2  -1  -9    4.15    0.36
  -2  -1  -9    5.13    0.39
  -2  -1  -9    4.56    0.40
   2   1   9    4.85    0.39
   2   1   9    4.54    0.39
   2   1   9    4.65    0.41
  -3  -1  -9    5.33    0.46
  -3  -1  -9    5.74    0.46
   3   1   9    5.30    0.43
   3   1   9    6.08    0.48
   3   1   9    5.56    0.43
  -4  -1  -9    3.24    0.30
  -4  -1  -9    3.16    0.36
  -4  -1  -9    3.28    0.38
  -4  -1  -9    3.02    0.40
   4   1   9    3.02    0.37
  -5  -1  -9    0.29    0.20
  -5  -1  -9    0.16    0.18
  -5  -1  -9    0.27    0.19
  -5  -1  -9    0.34    0.17
   5   1   9    0.57    0.18
  -6  -1  -9    0.77    0.22
  -6  -1  -9    1.21    0.31
  -6  -1  -9    1.11    0.30
  -6  -1  -9    1.07    0.24
   6   1   9    1.43    0.26
   6   1   9    1.20    0.25
  -7  -1  -9   11.91    0.71
  -7  -1  -9   11.65    0.80
  -7  -1  -9   11.05    0.68
   7   1   9   11.46    0.70
   7   1   9   11.53    0.73
   7  -2  -9    0.99    0.31
   7  -2  -9    0.75    0.31
   6  -2  -9   -0.14    0.14
   6  -2  -9    0.42    0.23
   6  -2  -9   -0.04    0.19
  -6   2   9    0.16    0.27
  -6   2   9    0.15    0.17
   5  -2  -9    0.50    0.18
   5  -2  -9    0.44    0.21
   5  -2  -9    0.71    0.26
  -5   2   9    0.65    0.20
  -5   2   9    0.47    0.16
   4  -2  -9    1.63    0.31
   4  -2  -9    2.30    0.31
   4  -2  -9    1.82    0.31
  -4   2   9    1.75    0.26
  -4   2   9    1.53    0.23
  -4   2   9    1.20    0.25
   3  -2  -9    0.04    0.13
   3  -2  -9    0.06    0.12
   3  -2  -9    0.15    0.14
  -3   2   9    0.03    0.13
  -3   2   9   -0.03    0.12
  -3   2   9    0.02    0.11
   2  -2  -9   24.57    0.89
   2  -2  -9   23.64    0.89
  -2   2   9   23.96    0.92
  -2   2   9   23.50    0.89
  -2   2   9   23.64    0.87
   1  -2  -9   88.05    2.25
   1  -2  -9   83.52    2.22
  -1   2   9   85.16    2.26
  -1   2   9   86.93    2.25
  -1   2   9   81.46    2.18
   0  -2  -9  112.70    2.78
   0  -2  -9  114.06    2.83
   0   2   9  112.39    2.84
   0   2   9  111.29    2.79
   0   2   9  111.62    2.82
  -1  -2  -9   62.74    1.76
  -1  -2  -9   62.32    1.76
  -1  -2  -9   59.03    1.69
   1   2   9   61.80    1.76
   1   2   9   63.76    1.76
   1   2   9   65.44    1.79
  -2  -2  -9    0.31    0.15
  -2  -2  -9    0.28    0.15
  -2  -2  -9    0.46    0.15
   2   2   9    0.29    0.14
   2   2   9    0.22    0.26
   2   2   9    0.20    0.14
  -3  -2  -9  185.39    4.37
  -3  -2  -9  182.99    4.39
  -3  -2  -9  185.90    4.40
   3   2   9  185.27    4.48
   3   2   9  186.99    4.40
   3   2   9  188.15    4.40
  -4  -2  -9   65.70    1.90
  -4  -2  -9   67.72    1.93
  -4  -2  -9   67.84    1.90
  -4  -2  -9   66.96    1.81
   4   2   9   65.26    1.89
   4   2   9   67.78    1.90
  -5  -2  -9   57.47    1.69
  -5  -2  -9   59.61    1.76
  -5  -2  -9   58.48    1.75
  -5  -2  -9   58.85    1.80
   5   2   9   60.37    1.73
  -6  -2  -9   68.44    2.01
  -6  -2  -9   71.24    2.06
  -6  -2  -9   68.54    2.12
   6   2   9   71.03    2.21
   6   2   9   73.74    2.14
  -7  -2  -9   54.13    1.70
  -7  -2  -9   57.14    1.89
  -7  -2  -9   57.83    1.76
   7   2   9   56.56    1.68
   7   2   9   57.92    2.07
  -8  -2  -9   23.40    1.15
  -8  -2  -9   21.18    0.92
  -8  -2  -9   23.75    0.98
   8   2   9   25.16    1.13
   8   2   9   22.47    0.92
   6  -3  -9    5.18    0.46
   6  -3  -9    5.22    0.59
   6  -3  -9    5.45    0.56
  -6   3   9    6.78    0.47
  -6   3   9    5.55    0.50
   5  -3  -9   13.33    0.86
   5  -3  -9   14.02    0.79
   5  -3  -9   16.00    0.88
  -5   3   9   14.39    0.71
  -5   3   9   14.12    0.75
   4  -3  -9   81.88    2.21
   4  -3  -9   81.48    2.27
  -4   3   9   84.09    2.29
  -4   3   9   76.48    2.20
   3  -3  -9   36.98    1.22
   3  -3  -9   37.07    1.22
  -3   3   9   36.38    1.25
  -3   3   9   34.78    1.21
   2  -3  -9   74.29    2.03
   2  -3  -9   76.32    1.97
  -2   3   9   71.79    2.02
  -2   3   9   70.76    1.99
  -2   3   9   73.90    2.06
   1  -3  -9   60.10    1.78
   1  -3  -9   61.32    1.74
  -1   3   9   61.10    1.77
  -1   3   9   59.28    1.81
  -1   3   9   59.33    1.73
   0  -3  -9   72.59    2.00
   0  -3  -9   72.21    1.99
   0   3   9   70.80    1.95
   0   3   9   73.84    2.03
   0   3   9   72.82    2.00
  -1  -3  -9   28.83    1.01
  -1  -3  -9   30.18    1.06
  -1  -3  -9   28.54    1.03
   1   3   9   28.88    1.02
   1   3   9   30.33    1.07
   1   3   9   29.05    1.04
  -2  -3  -9   38.59    1.22
   2   3   9   36.79    1.25
   2   3   9   37.96    1.26
   2   3   9   38.38    1.24
  -3  -3  -9   33.41    1.15
  -3  -3  -9   32.06    1.13
  -3  -3  -9   33.42    1.13
   3   3   9   32.25    1.23
   3   3   9   33.49    1.36
   3   3   9   33.45    1.14
  -4  -3  -9   78.99    2.15
  -4  -3  -9   77.75    2.14
  -4  -3  -9   77.48    2.14
   4   3   9   80.65    2.15
   4   3   9   75.81    2.25
   4   3   9   77.35    2.24
  -5  -3  -9   11.38    0.62
  -5  -3  -9   11.29    0.61
  -5  -3  -9   11.35    0.64
  -5  -3  -9   11.25    0.67
   5   3   9   12.15    0.62
  -6  -3  -9    8.93    0.67
  -6  -3  -9    8.76    0.57
  -6  -3  -9    7.95    0.55
   6   3   9    8.35    0.76
   6   3   9    9.14    0.65
  -7  -3  -9    2.45    0.34
  -7  -3  -9    1.59    0.33
  -7  -3  -9    1.81    0.30
   7   3   9    2.88    0.44
   7   3   9    1.84    0.29
  -8  -3  -9    0.18    0.19
  -8  -3  -9   -0.41    0.21
  -8  -3  -9    0.06    0.19
   8   3   9    0.07    0.16
   8   3   9   -0.14    0.20
   5  -4  -9   10.17    0.62
   5  -4  -9   10.04    0.75
   5  -4  -9   10.62    0.68
  -5   4   9   10.75    0.70
  -5   4   9    9.19    0.65
   4  -4  -9   35.07    1.27
   4  -4  -9   35.98    1.26
  -4   4   9   38.57    1.35
  -4   4   9   35.35    1.29
   3  -4  -9   32.31    1.12
   3  -4  -9   31.90    1.17
  -3   4   9   36.87    1.52
  -3   4   9   28.97    1.15
   2  -4  -9    4.09    0.41
   2  -4  -9    3.27    0.35
  -2   4   9    3.57    0.42
  -2   4   9    3.79    0.40
   1  -4  -9   14.90    0.72
   1  -4  -9   14.53    0.61
  -1   4   9   14.61    0.75
  -1   4   9   14.62    0.71
   0  -4  -9   13.59    0.79
   0  -4  -9   14.30    0.70
   0   4   9   12.48    0.66
   0   4   9   14.01    0.72
  -1  -4  -9    6.65    0.57
  -1  -4  -9    4.41    0.40
  -1  -4  -9    4.66    0.41
   1   4   9    5.38    0.43
  -2  -4  -9  103.72    2.63
  -2  -4  -9  108.39    2.70
  -2  -4  -9  101.78    2.66
   2   4   9   95.69    3.11
   2   4   9   95.90    3.12
   2   4   9  107.20    2.70
  -3  -4  -9    0.24    0.17
  -3  -4  -9    0.07    0.13
  -3  -4  -9    0.07    0.15
   3   4   9    0.45    0.18
   3   4   9    0.11    0.16
  -4  -4  -9    2.48    0.36
  -4  -4  -9    1.39    0.27
  -4  -4  -9    2.05    0.33
   4   4   9    1.68    0.30
   4   4   9    1.67    0.28
  -5  -4  -9    5.45    0.47
  -5  -4  -9    6.23    0.46
  -5  -4  -9    5.31    0.48
   5   4   9    5.38    0.44
  -6  -4  -9    8.73    0.80
  -6  -4  -9    8.59    0.56
  -6  -4  -9    9.15    0.62
   6   4   9    7.93    0.65
  -7  -4  -9   20.68    0.98
  -7  -4  -9   20.29    0.89
   7   4   9   19.59    0.84
   7   4   9   19.74    1.03
  -8  -4  -9    4.74    0.47
  -8  -4  -9    5.82    0.59
   8   4   9    5.26    0.44
   8   4   9    5.12    0.59
   4  -5  -9    6.07    0.55
   4  -5  -9    7.17    0.52
  -4   5   9    6.68    0.60
  -4   5   9    6.85    0.61
   3  -5  -9    0.11    0.14
   3  -5  -9   -0.16    0.18
  -3   5   9    0.14    0.21
   2  -5  -9    5.15    0.39
   2  -5  -9    5.11    0.48
  -2   5   9    5.07    0.53
  -2   5   9    4.82    0.48
   1  -5  -9   12.76    0.56
   1  -5  -9   12.40    0.73
  -1   5   9   12.57    0.72
  -1   5   9   13.37    0.76
   0  -5  -9   24.47    1.01
   0  -5  -9   23.29    0.97
   0   5   9   24.08    1.02
   0   5   9   22.98    0.96
  -1  -5  -9   32.77    1.18
  -1  -5  -9   29.99    1.13
   1   5   9   32.25    1.16
   1   5   9   34.29    1.21
   1   5   9   26.41    1.05
  -2  -5  -9   32.60    1.25
  -2  -5  -9   33.95    1.18
  -2  -5  -9   34.21    1.23
   2   5   9   33.85    1.20
   2   5   9   36.19    1.26
   2   5   9   33.23    1.21
  -3  -5  -9   35.54    1.26
  -3  -5  -9   37.55    1.30
  -3  -5  -9   36.75    1.24
   3   5   9   36.28    1.29
   3   5   9   38.91    1.30
  -4  -5  -9  121.36    3.19
  -4  -5  -9  121.93    3.19
  -4  -5  -9  127.51    3.16
   4   5   9  130.45    3.22
  -5  -5  -9   48.98    1.54
  -5  -5  -9   46.33    1.52
  -5  -5  -9   48.16    1.52
   5   5   9   47.03    1.50
  -6  -5  -9   40.71    1.39
  -6  -5  -9   43.50    1.53
  -6  -5  -9   43.84    1.44
   6   5   9   44.72    1.41
  -7  -5  -9   34.03    1.27
  -7  -5  -9   33.44    1.21
  -7  -5  -9   32.24    1.19
   7   5   9   32.93    1.15
   7   5   9   33.87    1.44
  -8  -5  -9   21.69    1.02
  -8  -5  -9   20.38    0.90
   8   5   9   20.46    0.86
   8   5   9   21.69    1.14
   3  -6  -9   19.95    0.80
   3  -6  -9   19.12    0.98
  -3   6   9   20.40    1.03
   2  -6  -9    8.73    0.64
   2  -6  -9    9.15    0.49
  -2   6   9    9.57    0.71
   1  -6  -9   22.97    0.91
   1  -6  -9   25.92    1.10
  -1   6   9   26.07    1.13
   0  -6  -9   43.06    1.21
   0  -6  -9   45.22    1.55
   0   6   9   45.16    1.57
  -1  -6  -9   26.68    1.09
   1   6   9   26.72    1.12
  -2  -6  -9   54.77    1.77
  -2  -6  -9   59.52    1.82
   2   6   9   58.62    1.82
  -3  -6  -9   14.03    0.75
  -3  -6  -9   13.95    0.76
  -3  -6  -9   13.69    0.71
   3   6   9   12.98    0.74
  -4  -6  -9   21.00    0.89
  -4  -6  -9   20.88    0.95
   4   6   9   21.72    0.95
  -5  -6  -9    8.04    0.59
  -5  -6  -9    8.13    0.55
  -5  -6  -9    6.45    0.55
   5   6   9    7.68    0.54
  -6  -6  -9    5.88    0.53
  -6  -6  -9    6.38    0.55
  -6  -6  -9    6.93    0.69
   6   6   9    6.31    0.62
   6   6   9    5.74    0.48
  -7  -6  -9    2.24    0.34
  -7  -6  -9    1.78    0.31
  -7  -6  -9    1.96    0.34
   7   6   9    2.18    0.32
   7   6   9    2.29    0.44
   2  -7  -9   10.26    0.73
  -2   7   9   10.33    0.76
   1  -7  -9    4.79    0.56
  -1   7   9    5.11    0.59
   0  -7  -9    4.94    0.56
   0   7   9    5.15    0.58
  -1  -7  -9    1.32    0.29
   1   7   9    1.14    0.34
  -2  -7  -9   -0.08    0.21
   2   7   9   -0.07    0.19
  -3  -7  -9    0.09    0.19
   3   7   9    0.48    0.23
  -4  -7  -9    5.64    0.54
  -4  -7  -9    6.83    0.58
  -4  -7  -9    6.44    0.51
   4   7   9    6.73    0.59
  -5  -7  -9    4.53    0.71
  -5  -7  -9    3.25    0.41
  -5  -7  -9    4.17    0.48
   5   7   9    4.68    0.49
  -6  -7  -9   17.44    0.79
  -6  -7  -9   17.10    0.83
  -6  -7  -9   16.34    0.86
  -6  -7  -9   17.89    0.88
   6   7   9   15.81    0.97
   6   7   9   16.64    0.84
  -7  -7  -9    5.26    0.52
  -7  -7  -9    5.91    0.53
  -7  -7  -9    5.90    0.55
   7   7   9    5.68    0.54
   7   7   9    6.31    0.66
   0  -8  -9    6.74    0.68
   0   8   9    7.96    0.72
  -1  -8  -9   10.51    0.78
   1   8   9   11.06    0.81
  -2  -8  -9   22.02    1.08
   2   8   9   21.83    1.09
  -3  -8  -9    4.53    0.55
   3   8   9    3.62    0.58
  -4  -8  -9   16.54    0.91
   4   8   9   14.46    0.87
  -5  -8  -9   14.58    0.85
  -5  -8  -9   17.39    0.63
   5   8   9   15.18    0.88
  -6  -8  -9   19.54    0.96
  -6  -8  -9   17.65    0.87
  -6  -8  -9   17.52    0.93
  -6  -8  -9   20.16    0.77
   6   8   9   18.93    1.07
   6   8   9   18.87    0.94
   5   7 -10   17.23    0.95
   5   7 -10   17.62    0.86
  -5  -7  10   17.16    0.88
  -5  -7  10   17.90    0.89
   4   7 -10   18.70    0.96
   4   7 -10   19.77    0.94
  -4  -7  10   19.36    0.95
  -4  -7  10   21.20    0.97
   3   7 -10   13.82    0.82
  -3  -7  10   11.91    0.92
  -3  -7  10   13.48    0.80
   2   7 -10   11.48    0.79
  -2  -7  10    9.58    0.54
   1   7 -10    7.62    0.67
   1   7 -10    5.78    0.39
   6   6 -10    3.09    0.47
   6   6 -10    3.08    0.38
  -6  -6  10    3.96    0.43
  -6  -6  10    4.35    0.43
   5   6 -10    1.76    0.28
   5   6 -10    1.45    0.34
  -5  -6  10    1.42    0.30
  -5  -6  10    1.51    0.29
   4   6 -10    0.08    0.18
   4   6 -10    0.16    0.18
  -4  -6  10    0.09    0.19
  -4  -6  10    0.16    0.16
   3   6 -10    1.31    0.25
  -3  -6  10    0.66    0.22
  -3  -6  10    0.53    0.21
  -3  -6  10    0.98    0.30
   2   6 -10    0.07    0.10
  -2  -6  10    0.29    0.26
  -2  -6  10    0.18    0.18
  -2  -6  10   -0.33    0.15
   1   6 -10    0.84    0.19
   1   6 -10    0.59    0.24
  -1  -6  10    0.93    0.19
  -1  -6  10    0.73    0.26
   0   6 -10    0.10    0.16
   0   6 -10    0.12    0.21
   0  -6  10    0.40    0.22
  -1   6 -10    6.04    0.64
  -1   6 -10    4.71    0.49
   1  -6  10    4.83    0.59
   7   5 -10    0.19    0.14
   7   5 -10    0.75    0.28
  -7  -5  10    0.25    0.16
  -7  -5  10    0.33    0.16
   6   5 -10    2.34    0.40
   6   5 -10    2.42    0.31
  -6  -5  10    2.37    0.31
  -6  -5  10    3.01    0.37
   5   5 -10   17.82    0.94
   5   5 -10   18.82    0.79
  -5  -5  10   18.89    0.85
  -5  -5  10   17.22    0.78
   4   5 -10   11.97    0.64
   4   5 -10   11.96    1.07
  -4  -5  10   11.44    0.67
  -4  -5  10   11.81    0.45
  -4  -5  10   11.96    0.65
   3   5 -10    6.89    0.52
  -3  -5  10    7.00    0.54
  -3  -5  10    6.50    0.53
  -3  -5  10    6.81    0.54
  -3  -5  10    6.70    0.38
   2   5 -10   11.61    0.68
  -2  -5  10   10.56    0.97
  -2  -5  10   11.64    0.71
  -2  -5  10   10.23    0.51
  -2  -5  10    9.96    0.57
   1   5 -10    3.37    0.47
   1   5 -10    3.89    0.33
  -1  -5  10    3.96    0.35
  -1  -5  10    2.99    0.45
  -1  -5  10    3.86    0.47
   0   5 -10   25.26    0.91
   0   5 -10   25.54    1.13
   0  -5  10   24.37    0.82
   0  -5  10   26.39    1.15
  -1   5 -10   14.50    0.73
  -1   5 -10   15.36    0.88
   1  -5  10   14.62    0.86
  -2   5 -10   21.70    1.09
  -2   5 -10   22.87    0.99
   2  -5  10   22.06    1.09
  -3   5 -10    4.24    0.53
  -3   5 -10    5.27    0.59
   3  -5  10    5.17    0.58
   7   4 -10   21.92    0.76
   7   4 -10   24.42    1.20
   7   4 -10   23.26    0.74
  -7  -4  10   23.51    0.78
  -7  -4  10   25.13    0.86
  -7  -4  10   24.98    1.02
   6   4 -10   28.12    1.24
   6   4 -10   25.25    0.88
  -6  -4  10   24.96    0.93
  -6  -4  10   25.53    0.82
  -6  -4  10   30.08    1.23
   5   4 -10   49.69    1.46
   5   4 -10   49.95    1.73
  -5  -4  10   50.27    1.53
  -5  -4  10   48.66    1.50
   4   4 -10   24.75    0.94
   4   4 -10   24.12    1.06
  -4  -4  10   26.05    1.00
  -4  -4  10   24.65    1.05
  -4  -4  10   24.48    0.95
   3   4 -10   44.18    1.41
  -3  -4  10   42.37    1.26
  -3  -4  10   44.02    1.42
  -3  -4  10   44.09    1.44
  -3  -4  10   43.70    1.50
   2   4 -10   64.06    1.61
   2   4 -10   61.99    1.84
  -2  -4  10   59.23    1.84
  -2  -4  10   61.84    1.68
  -2  -4  10   61.43    1.86
  -2  -4  10   60.32    1.74
   1   4 -10   36.10    1.30
   1   4 -10   36.65    1.09
  -1  -4  10   33.83    1.15
  -1  -4  10   36.78    1.32
  -1  -4  10   35.78    1.43
   0   4 -10   41.15    1.44
   0   4 -10   40.71    1.24
   0  -4  10   39.66    1.41
   0  -4  10   40.31    1.45
   0  -4  10   40.32    1.34
  -1   4 -10   15.15    0.72
  -1   4 -10   16.56    0.88
   1  -4  10   14.51    1.17
   1  -4  10   16.24    0.86
  -2   4 -10    1.87    0.31
  -2   4 -10    1.52    0.31
   2  -4  10    2.01    0.34
  -3   4 -10    0.84    0.27
  -3   4 -10    0.55    0.27
  -4   4 -10    1.43    0.35
  -4   4 -10    1.22    0.32
   4  -4  10    1.13    0.29
   7   3 -10   15.04    0.55
   7   3 -10   16.47    0.97
   7   3 -10   16.90    0.84
   7   3 -10   16.65    0.56
  -7  -3  10   17.20    0.69
  -7  -3  10   15.17    0.66
  -7  -3  10   16.71    0.66
   6   3 -10   15.37    0.80
   6   3 -10   18.49    0.97
   6   3 -10   17.60    0.66
   6   3 -10   17.53    0.78
  -6  -3  10   17.18    0.71
  -6  -3  10   16.95    0.67
  -6  -3  10   17.07    0.73
   5   3 -10    0.73    0.36
   5   3 -10    0.69    0.18
   5   3 -10    0.90    0.20
  -5  -3  10    0.91    0.20
  -5  -3  10    0.99    0.21
  -5  -3  10    0.67    0.16
   4   3 -10    1.65    0.33
   4   3 -10    1.06    0.21
  -4  -3  10    1.15    0.19
  -4  -3  10    1.06    0.23
  -4  -3  10    1.15    0.22
  -3  -3  10    4.56    0.35
  -3  -3  10    4.78    0.42
  -3  -3  10    5.24    0.45
   2   3 -10    0.83    0.16
   2   3 -10    0.67    0.19
  -2  -3  10    0.56    0.20
  -2  -3  10    0.69    0.22
  -2  -3  10    0.69    0.17
   1   3 -10   -0.10    0.14
   1   3 -10    0.19    0.13
  -1  -3  10    0.54    0.21
  -1  -3  10    0.49    0.16
  -1  -3  10    0.15    0.16
   0   3 -10    7.73    0.56
   0   3 -10    8.39    0.48
   0   3 -10    8.36    0.59
   0  -3  10    9.07    0.70
   0  -3  10    8.20    0.53
   0  -3  10    8.31    0.58
  -1   3 -10   18.30    0.89
  -1   3 -10   18.56    0.78
  -1   3 -10   18.13    0.87
   1  -3  10   17.57    0.85
   1  -3  10   18.77    0.86
   1  -3  10   19.08    0.88
  -2   3 -10   50.46    1.56
  -2   3 -10   49.73    1.66
   2  -3  10   48.07    1.65
   2  -3  10   48.86    1.64
  -3   3 -10    5.57    0.55
  -3   3 -10    5.14    0.53
   3  -3  10    5.32    0.52
  -4   3 -10    6.37    0.60
  -4   3 -10    6.44    0.60
   4  -3  10    6.75    0.39
   4  -3  10    6.41    0.57
  -5   3 -10    9.03    0.74
  -5   3 -10    9.15    0.72
   5  -3  10    8.55    0.69
   7   2 -10    3.77    0.31
   7   2 -10    4.80    0.30
   7   2 -10    4.30    0.71
   7   2 -10    4.89    0.57
  -7  -2  10    4.87    0.36
  -7  -2  10    5.35    0.39
  -7  -2  10    5.00    0.41
   6   2 -10    0.69    0.17
   6   2 -10    0.56    0.24
   6   2 -10    0.36    0.16
   6   2 -10    0.70    0.25
  -6  -2  10    0.57    0.18
  -6  -2  10    0.81    0.20
  -6  -2  10    0.85    0.19
   5   2 -10   12.11    0.59
   5   2 -10   14.46    0.86
   5   2 -10   13.25    0.64
   5   2 -10   13.66    0.60
  -5  -2  10   13.15    0.58
  -5  -2  10   13.36    0.63
  -5  -2  10   13.96    0.66
   4   2 -10   23.14    0.86
   4   2 -10   23.08    1.00
   4   2 -10   23.07    0.80
   4   2 -10   20.60    0.83
  -4  -2  10   23.28    0.82
  -4  -2  10   23.30    0.90
  -4  -2  10   22.68    0.89
   3   2 -10   21.88    0.87
   3   2 -10   23.59    0.74
   3   2 -10   23.60    0.88
  -3  -2  10   23.23    0.91
  -3  -2  10   23.19    0.82
  -3  -2  10   23.03    0.90
   2   2 -10   58.83    1.72
   2   2 -10   60.48    1.62
   2   2 -10   59.91    1.73
  -2  -2  10   59.50    1.65
  -2  -2  10   58.91    1.73
  -2  -2  10   60.76    1.77
   1   2 -10   58.14    1.74
   1   2 -10   61.75    1.62
  -1  -2  10   60.04    1.68
  -1  -2  10   60.15    1.78
  -1  -2  10   58.62    1.75
   0   2 -10   35.78    1.10
   0   2 -10   34.59    1.22
   0   2 -10   34.57    1.21
   0  -2  10   35.29    1.24
   0  -2  10   34.10    1.18
   0  -2  10   33.98    1.21
  -1   2 -10   29.42    1.02
  -1   2 -10   29.10    1.11
  -1   2 -10   27.70    1.08
   1  -2  10   28.70    1.08
   1  -2  10   29.94    1.13
   1  -2  10   26.79    1.21
  -2   2 -10   53.23    1.66
  -2   2 -10   51.89    1.57
  -2   2 -10   49.69    1.62
   2  -2  10   49.04    1.61
   2  -2  10   51.36    1.68
   2  -2  10   49.70    1.64
  -3   2 -10   33.13    1.26
  -3   2 -10   34.18    1.28
  -3   2 -10   33.42    1.24
   3  -2  10   32.50    1.25
  -4   2 -10   24.53    1.17
  -4   2 -10   21.86    1.00
  -4   2 -10   22.46    1.04
   4  -2  10   22.33    1.02
  -5   2 -10   32.84    1.33
  -5   2 -10   32.52    1.35
   5  -2  10   33.22    1.08
   5  -2  10   33.71    1.32
  -6   2 -10   17.58    0.95
  -6   2 -10   16.38    0.98
   6  -2  10   16.16    0.71
   6  -2  10   16.94    0.91
   7   1 -10   21.54    0.72
   7   1 -10   24.08    1.16
   7   1 -10   24.96    1.09
   7   1 -10   20.16    0.80
  -7  -1  10   23.13    0.83
  -7  -1  10   24.11    1.15
   6   1 -10   32.26    1.01
   6   1 -10   33.86    1.37
   6   1 -10   34.09    1.25
  -6  -1  10   34.99    1.12
  -6  -1  10   32.83    1.08
  -6  -1  10   31.80    1.10
   5   1 -10   44.79    1.30
   5   1 -10   44.55    1.42
   5   1 -10   42.37    1.30
   5   1 -10   48.03    1.61
  -5  -1  10   43.95    1.35
  -5  -1  10   46.27    1.38
  -5  -1  10   42.43    1.35
   4   1 -10   65.67    1.79
   4   1 -10   66.06    1.79
   4   1 -10   61.99    1.77
   4   1 -10   68.68    1.99
  -4  -1  10   67.51    1.85
  -4  -1  10   62.46    1.75
  -4  -1  10   65.07    1.82
   3   1 -10   73.39    2.07
   3   1 -10   71.00    1.96
   3   1 -10   74.72    1.99
  -3  -1  10   72.58    1.99
  -3  -1  10   72.55    1.93
  -3  -1  10   74.77    2.03
   2   1 -10   38.74    1.19
   2   1 -10   38.75    1.04
   2   1 -10   39.25    1.25
  -2  -1  10   37.99    1.19
  -2  -1  10   37.72    1.24
  -2  -1  10   38.85    1.27
   1   1 -10   34.96    1.19
   1   1 -10   35.15    1.19
   1   1 -10   36.10    0.91
   1   1 -10   36.54    1.11
  -1  -1  10   34.40    1.14
  -1  -1  10   35.70    1.19
  -1  -1  10   35.44    1.21
   0   1 -10   36.49    1.21
   0   1 -10   37.15    1.13
   0   1 -10   34.71    1.21
   0  -1  10   35.08    1.22
   0  -1  10   34.82    1.21
   0  -1  10   35.27    1.18
  -1   1 -10   14.67    0.72
  -1   1 -10   15.21    0.67
  -1   1 -10   14.71    0.72
   1  -1  10   15.75    0.75
   1  -1  10   15.44    0.74
   1  -1  10   13.90    0.70
  -2   1 -10    0.44    0.18
  -2   1 -10   -0.21    0.15
  -2   1 -10    0.09    0.17
   2  -1  10   -0.19    0.20
   2  -1  10    0.01    0.14
   2  -1  10   -0.02    0.13
  -3   1 -10   18.72    0.88
  -3   1 -10   17.62    0.86
  -3   1 -10   17.86    0.54
  -3   1 -10   17.99    0.85
   3  -1  10   17.87    0.85
   3  -1  10   18.32    0.92
  -4   1 -10    2.08    0.54
  -4   1 -10    2.39    0.41
  -4   1 -10    1.84    0.32
   4  -1  10    1.66    0.28
  -5   1 -10    0.88    0.25
  -5   1 -10    0.35    0.22
  -5   1 -10    0.62    0.25
   5  -1  10    0.83    0.23
   5  -1  10    0.66    0.19
  -6   1 -10    3.38    0.47
  -6   1 -10    2.31    0.39
  -6   1 -10    2.34    0.41
   6  -1  10    2.52    0.39
   6  -1  10    2.40    0.36
   7   0 -10   10.19    0.76
   7   0 -10    9.27    0.72
  -7   0  10    9.56    0.50
  -7   0  10    9.67    0.55
   6   0 -10   11.45    0.55
   6   0 -10   12.68    0.78
   6   0 -10   11.56    0.76
  -6   0  10   13.56    0.74
  -6   0  10   11.44    0.58
   5   0 -10   20.17    0.97
   5   0 -10   20.04    0.76
   5   0 -10   20.86    0.89
  -5   0  10   20.47    0.83
  -5   0  10   19.34    0.81
  -5   0  10   18.74    0.79
   4   0 -10    5.99    0.45
   4   0 -10    5.68    0.41
   4   0 -10    6.55    0.51
   4   0 -10    5.24    0.39
  -4   0  10    5.99    0.45
   3   0 -10    0.25    0.14
   3   0 -10    0.12    0.12
   3   0 -10   -0.03    0.12
  -3   0  10    0.00    0.11
  -3   0  10    0.03    0.12
  -3   0  10    0.04    0.12
   2   0 -10    1.15    0.22
   2   0 -10    1.57    0.33
  -2   0  10    1.24    0.24
  -2   0  10    0.98    0.23
  -2   0  10    0.99    0.20
   1   0 -10    1.73    0.28
   1   0 -10    1.02    0.24
   1   0 -10    1.18    0.20
  -1   0  10    0.93    0.22
  -1   0  10    1.19    0.21
  -1   0  10    1.13    0.22
   0   0 -10    0.77    0.23
   0   0 -10    0.91    0.19
   0   0  10    0.62    0.18
   0   0  10    0.79    0.20
   0   0  10    1.09    0.28
  -1   0 -10    0.73    0.20
  -1   0 -10    0.68    0.18
  -1   0 -10    0.74    0.20
   1   0  10    0.54    0.18
   1   0  10    0.74    0.20
   1   0  10    0.72    0.19
  -2   0 -10   30.90    1.08
  -2   0 -10   29.99    1.13
  -2   0 -10   30.18    1.12
  -2   0 -10   30.00    0.86
   2   0  10   32.63    1.15
   2   0  10   31.09    1.21
  -3   0 -10   62.43    1.83
  -3   0 -10   62.09    1.87
  -3   0 -10   61.43    1.85
  -3   0 -10   61.13    1.56
   3   0  10   62.18    1.92
   3   0  10   63.66    1.87
  -4   0 -10   10.39    0.47
  -4   0 -10   10.59    0.67
  -4   0 -10   10.19    0.65
  -4   0 -10   11.21    0.68
   4   0  10   11.00    0.66
  -5   0 -10   23.48    1.02
  -5   0 -10   23.69    0.84
  -5   0 -10   25.14    1.05
  -5   0 -10   24.39    1.08
   5   0  10   24.07    1.00
  -6   0 -10   27.96    1.17
  -6   0 -10   29.96    1.19
  -6   0 -10   28.86    1.26
  -6   0 -10   26.20    0.98
   6   0  10   28.19    1.12
   6   0  10   28.94    1.11
  -7   0 -10   21.64    1.13
  -7   0 -10   20.28    0.99
  -7   0 -10   20.13    1.20
   7   0  10   20.65    0.95
   7   0  10   21.04    0.96
   7  -1 -10    5.52    0.60
   7  -1 -10    6.38    0.63
   7  -1 -10    5.23    0.41
  -7   1  10    5.97    0.45
  -7   1  10    6.14    0.49
   6  -1 -10    6.81    0.44
   6  -1 -10    8.12    0.64
   6  -1 -10    7.19    0.63
  -6   1  10    7.33    0.49
  -6   1  10    7.78    0.52
   5  -1 -10   11.16    0.72
   5  -1 -10   11.83    0.70
   5  -1 -10   11.56    0.58
  -5   1  10   11.08    0.72
  -5   1  10   12.10    0.64
   4  -1 -10   26.75    0.95
   4  -1 -10   25.54    1.05
   4  -1 -10   26.75    1.01
  -4   1  10   23.30    0.93
  -4   1  10   25.76    0.97
  -4   1  10   27.17    1.00
   3  -1 -10   47.86    1.51
   3  -1 -10   47.53    1.64
   3  -1 -10   45.21    1.41
  -3   1  10   48.14    1.46
  -3   1  10   47.75    1.48
  -3   1  10   48.05    1.51
   2  -1 -10   52.79    1.62
   2  -1 -10   56.11    1.62
  -2   1  10   56.61    1.65
  -2   1  10   54.95    1.62
  -2   1  10   53.53    1.57
   1  -1 -10   60.73    1.74
   1  -1 -10   59.26    1.72
   1  -1 -10   61.68    1.71
  -1   1  10   60.45    1.76
  -1   1  10   60.07    1.74
  -1   1  10   60.15    1.71
   0  -1 -10  130.99    3.17
   0  -1 -10  126.44    3.08
   0  -1 -10  121.38    3.12
   0   1  10  127.77    3.18
   0   1  10  124.97    3.15
   0   1  10  124.53    3.12
  -1  -1 -10   91.73    2.47
  -1  -1 -10   96.29    2.42
   1   1  10   93.20    2.48
   1   1  10   93.33    2.48
   1   1  10   95.10    2.50
  -2  -1 -10   50.99    1.57
  -2  -1 -10   51.72    1.56
  -2  -1 -10   49.97    1.52
   2   1  10   52.47    1.59
   2   1  10   52.31    1.75
   2   1  10   49.67    1.58
  -3  -1 -10  204.05    4.76
  -3  -1 -10  201.15    4.72
  -3  -1 -10  200.94    4.50
   3   1  10  206.05    4.76
   3   1  10  181.27    4.78
  -4  -1 -10   77.22    2.03
  -4  -1 -10   78.53    2.24
  -4  -1 -10   79.49    2.24
  -4  -1 -10   81.25    2.26
   4   1  10   80.74    2.24
  -5  -1 -10   40.34    1.39
  -5  -1 -10   41.50    1.66
  -5  -1 -10   38.96    1.24
   5   1  10   40.55    1.37
  -6  -1 -10   21.95    0.97
  -6  -1 -10   20.90    0.95
  -6  -1 -10   20.77    0.99
  -6  -1 -10   21.77    1.04
   6   1  10   21.26    0.97
   6   1  10   22.24    0.94
  -7  -1 -10   23.43    1.04
  -7  -1 -10   23.09    1.13
  -7  -1 -10   22.22    1.02
   7   1  10   24.42    1.00
   6  -2 -10   16.35    0.94
   6  -2 -10   14.14    0.87
   6  -2 -10   14.91    0.70
  -6   2  10   15.80    0.73
  -6   2  10   15.10    0.76
   5  -2 -10   29.64    1.06
   5  -2 -10   30.66    1.25
   5  -2 -10   30.69    1.30
  -5   2  10   28.71    1.08
  -5   2  10   29.13    1.11
   4  -2 -10   55.94    1.73
   4  -2 -10   53.73    1.71
   4  -2 -10   57.72    2.06
  -4   2  10   53.48    1.68
  -4   2  10   52.64    1.63
   3  -2 -10   41.08    1.30
   3  -2 -10   39.32    1.31
  -3   2  10   39.15    1.29
  -3   2  10   36.78    1.26
  -3   2  10   39.19    1.32
   2  -2 -10    7.93    0.52
  -2   2  10    8.24    0.52
  -2   2  10    8.69    0.55
  -2   2  10    9.00    0.52
   1  -2 -10   37.98    1.61
   1  -2 -10   42.27    1.34
  -1   2  10   41.17    1.34
  -1   2  10   40.67    1.35
  -1   2  10   44.04    1.67
   0  -2 -10   24.84    0.96
   0  -2 -10   24.86    0.93
   0   2  10   26.11    0.96
   0   2  10   25.25    0.96
   0   2  10   25.19    0.99
  -1  -2 -10   18.95    0.82
  -1  -2 -10   19.22    0.81
  -1  -2 -10   18.66    0.78
   1   2  10   20.26    0.84
   1   2  10   18.44    0.81
   1   2  10   18.02    0.80
  -2  -2 -10    2.45    0.35
  -2  -2 -10    2.78    0.35
  -2  -2 -10    2.40    0.35
   2   2  10    2.48    0.35
   2   2  10    1.97    0.31
   2   2  10    2.10    0.46
  -3  -2 -10    1.43    0.26
  -3  -2 -10    1.50    0.26
  -3  -2 -10    1.56    0.26
   3   2  10    1.19    0.23
  -4  -2 -10    1.71    0.26
  -4  -2 -10    1.76    0.29
  -4  -2 -10    1.42    0.30
  -4  -2 -10    1.56    0.25
   4   2  10    2.07    0.32
  -5  -2 -10   -0.21    0.15
  -5  -2 -10    0.12    0.19
  -5  -2 -10   -0.08    0.16
   5   2  10    0.03    0.14
  -6  -2 -10    0.96    0.26
  -6  -2 -10    1.11    0.28
  -6  -2 -10    0.85    0.26
  -6  -2 -10    0.78    0.25
   6   2  10    1.12    0.27
   6   2  10    0.94    0.22
  -7  -2 -10    1.74    0.35
  -7  -2 -10    1.76    0.31
  -7  -2 -10    1.71    0.32
   7   2  10    1.48    0.30
   7   2  10    1.47    0.28
   5  -3 -10    3.58    0.50
   5  -3 -10    2.51    0.61
   5  -3 -10    3.19    0.39
  -5   3  10    3.08    0.43
  -5   3  10    3.46    0.43
   4  -3 -10   10.58    0.69
   4  -3 -10   11.81    0.66
  -4   3  10   12.59    0.72
  -4   3  10   11.90    0.67
   3  -3 -10    4.61    0.43
   3  -3 -10    4.44    0.42
  -3   3  10    4.47    0.43
  -3   3  10    4.74    0.47
   2  -3 -10    2.33    0.31
   2  -3 -10    2.58    0.35
  -2   3  10    2.53    0.36
  -2   3  10    2.79    0.38
   1  -3 -10    0.28    0.16
  -1   3  10   -0.21    0.11
  -1   3  10   -0.14    0.13
  -1   3  10    0.03    0.13
   0  -3 -10    3.28    0.36
   0  -3 -10    3.80    0.39
   0   3  10    3.47    0.39
   0   3  10    3.86    0.41
  -1  -3 -10    2.68    0.36
  -1  -3 -10    3.53    0.37
  -1  -3 -10    2.86    0.35
   1   3  10    3.12    0.37
   1   3  10    2.43    0.33
  -2  -3 -10    0.09    0.17
  -2  -3 -10    0.09    0.15
  -2  -3 -10   -0.07    0.15
   2   3  10    0.54    0.20
   2   3  10    0.23    0.18
  -3  -3 -10   73.49    2.11
  -3  -3 -10   73.18    2.09
  -3  -3 -10   72.84    2.06
   3   3  10   78.32    2.13
  -4  -3 -10   51.26    1.62
  -4  -3 -10   52.51    1.63
  -4  -3 -10   53.87    1.66
   4   3  10   52.31    1.64
  -5  -3 -10   18.41    1.12
  -5  -3 -10   22.48    0.97
  -5  -3 -10   22.48    0.97
  -5  -3 -10   23.16    0.95
   5   3  10   22.94    0.94
  -6  -3 -10    9.88    0.63
  -6  -3 -10    9.55    0.67
   6   3  10    9.69    0.60
  -7  -3 -10   40.57    1.41
  -7  -3 -10   39.08    1.40
  -7  -3 -10   40.42    1.51
   7   3  10   39.43    1.34
   7   3  10   39.01    1.54
   5  -4 -10    4.44    0.47
   5  -4 -10    5.81    0.65
   5  -4 -10    5.39    0.59
  -5   4  10    4.29    0.67
  -5   4  10    6.54    0.55
   4  -4 -10   13.32    0.74
   4  -4 -10   14.22    0.76
  -4   4  10   13.73    0.79
  -4   4  10   13.43    0.90
   3  -4 -10   37.40    1.31
   3  -4 -10   36.01    1.25
  -3   4  10   36.31    1.34
  -3   4  10   32.33    1.39
   2  -4 -10   18.03    0.84
   2  -4 -10   17.16    0.75
  -2   4  10   18.23    0.91
  -2   4  10   16.68    1.00
   1  -4 -10   63.24    1.70
   1  -4 -10   62.39    1.86
  -1   4  10   64.03    1.90
  -1   4  10   55.63    2.18
   0  -4 -10   75.57    2.19
   0  -4 -10   82.41    2.25
   0   4  10   81.35    2.26
   0   4  10   77.30    2.23
  -1  -4 -10   67.57    2.01
  -1  -4 -10   71.11    2.01
   1   4  10   70.17    2.03
   1   4  10   72.93    2.07
  -2  -4 -10   54.47    2.05
  -2  -4 -10   55.56    1.70
  -2  -4 -10   54.84    1.64
   2   4  10   54.07    1.70
   2   4  10   52.29    1.66
  -3  -4 -10   80.96    2.27
  -3  -4 -10   80.06    2.22
  -3  -4 -10   78.62    2.25
   3   4  10   84.35    2.29
  -4  -4 -10   97.73    2.65
  -4  -4 -10   99.76    2.62
  -4  -4 -10   96.67    2.65
   4   4  10   99.38    2.65
  -5  -4 -10   28.23    1.12
  -5  -4 -10   26.46    1.40
  -5  -4 -10   28.55    1.10
   5   4  10   28.66    1.08
  -6  -4 -10   20.05    0.92
  -6  -4 -10   21.30    0.96
  -6  -4 -10   19.56    0.90
   6   4  10   20.70    0.89
  -7  -4 -10   22.70    1.00
  -7  -4 -10   24.26    1.09
   7   4  10   23.21    0.96
   7   4  10   23.95    1.17
   4  -5 -10   20.07    0.90
   4  -5 -10   18.72    0.94
  -4   5  10   21.80    1.03
   3  -5 -10   25.38    1.09
   3  -5 -10   25.09    0.97
  -3   5  10   24.12    1.29
  -3   5  10   26.16    1.15
   2  -5 -10    7.59    0.49
   2  -5 -10    7.72    0.61
  -2   5  10    7.41    0.59
  -2   5  10    8.52    0.65
   1  -5 -10    9.94    0.65
   1  -5 -10    9.64    0.52
  -1   5  10    9.34    0.64
  -1   5  10   10.69    0.89
   0  -5 -10   14.54    0.79
   0   5  10   13.95    0.78
   0   5  10   14.87    0.85
  -1  -5 -10   19.68    0.91
  -1  -5 -10   18.92    1.09
   1   5  10   19.87    0.93
  -2  -5 -10   12.32    0.70
  -2  -5 -10   11.47    0.69
  -2  -5 -10   12.56    0.68
   2   5  10   11.87    0.71
  -3  -5 -10    0.20    0.18
  -3  -5 -10    0.17    0.17
  -3  -5 -10    0.48    0.20
   3   5  10    0.15    0.16
  -4  -5 -10    0.38    0.20
  -4  -5 -10    0.05    0.26
  -4  -5 -10    0.56    0.21
   4   5  10    0.71    0.24
  -5  -5 -10   -0.29    0.24
  -5  -5 -10    0.23    0.20
  -5  -5 -10   -0.15    0.16
   5   5  10   -0.17    0.15
  -6  -5 -10    1.22    0.30
  -6  -5 -10    1.44    0.29
  -6  -5 -10    1.53    0.31
   6   5  10    1.02    0.23
  -7  -5 -10    0.80    0.26
  -7  -5 -10    0.75    0.25
  -7  -5 -10    0.38    0.24
   7   5  10    0.51    0.24
   7   5  10    0.52    0.19
   3  -6 -10    0.06    0.22
   3  -6 -10    0.33    0.19
  -3   6  10    0.25    0.23
   2  -6 -10    0.75    0.25
   2  -6 -10    1.15    0.22
  -2   6  10    0.80    0.29
   1  -6 -10    3.00    0.43
   1  -6 -10    3.31    0.32
  -1   6  10    4.00    0.53
   0  -6 -10    7.06    0.41
   0  -6 -10    6.41    0.60
   0   6  10    8.05    0.64
  -1  -6 -10   11.66    0.75
   1   6  10   12.82    0.78
  -2  -6 -10    2.47    0.52
   2   6  10    3.75    0.49
  -3  -6 -10   21.58    1.02
  -3  -6 -10   24.20    1.05
  -3  -6 -10   23.81    1.03
   3   6  10   22.67    1.03
  -4  -6 -10   47.10    1.61
  -4  -6 -10   46.14    1.59
   4   6  10   48.64    1.61
  -5  -6 -10   19.62    0.90
  -5  -6 -10   18.88    0.91
  -5  -6 -10   18.42    0.90
   5   6  10   17.63    0.87
  -6  -6 -10   18.10    0.90
  -6  -6 -10   19.37    0.90
  -6  -6 -10   17.66    0.99
   6   6  10   18.65    0.88
  -7  -6 -10   29.15    1.15
  -7  -6 -10   25.59    1.11
  -7  -6 -10   26.14    1.13
   7   6  10   28.80    1.36
   7   6  10   27.39    1.08
   1  -7 -10   17.58    0.64
   1  -7 -10   17.19    0.97
  -1   7  10   19.34    1.01
   0  -7 -10   17.31    0.95
   0   7  10   17.03    0.97
  -1  -7 -10   26.55    0.82
  -1  -7 -10   28.37    1.23
   1   7  10   27.94    1.24
  -2  -7 -10   23.96    1.12
   2   7  10   24.89    1.26
  -3  -7 -10    6.08    0.58
   3   7  10    6.68    0.61
  -4  -7 -10   31.40    1.26
  -4  -7 -10   29.20    1.16
   4   7  10   28.83    1.22
  -5  -7 -10   21.22    1.01
  -5  -7 -10   19.05    1.43
  -5  -7 -10   21.43    0.96
   5   7  10   22.03    1.02
  -6  -7 -10   11.18    0.69
  -6  -7 -10   11.39    0.72
  -6  -7 -10   11.99    0.74
  -6  -7 -10    9.73    0.74
   6   7  10   10.05    0.79
   6   7  10   10.99    0.72
  -1  -8 -10    2.18    0.41
   1   8  10    2.28    0.41
  -2  -8 -10   12.22    0.83
   2   8  10   13.26    0.87
  -3  -8 -10    2.50    0.40
   3   8  10    2.31    0.40
  -4  -8 -10    0.77    0.30
   5   6 -11   14.28    0.90
   5   6 -11   16.02    0.79
  -5  -6  11   15.42    0.81
  -5  -6  11   16.14    0.82
   4   6 -11    6.73    0.61
   4   6 -11    6.65    0.56
  -4  -6  11    7.24    0.61
   3   6 -11   12.87    0.78
  -3  -6  11   12.86    0.80
  -3  -6  11   12.81    1.04
  -3  -6  11   11.72    0.76
   2   6 -11    8.52    0.42
   2   6 -11    8.37    0.69
  -2  -6  11    8.19    0.56
  -2  -6  11    9.43    0.71
   1   6 -11    7.44    0.44
   1   6 -11    7.60    0.73
  -1  -6  11    7.30    0.67
  -1  -6  11    7.05    0.47
   0   6 -11   10.54    0.77
   0   6 -11   11.06    0.60
   0  -6  11    9.67    0.58
   0  -6  11   11.40    0.78
   6   5 -11   13.46    0.66
   6   5 -11   14.69    0.92
  -6  -5  11   15.33    0.76
  -6  -5  11   15.40    0.87
   5   5 -11    6.91    0.50
   5   5 -11    6.84    0.62
  -5  -5  11    8.73    0.57
  -5  -5  11    8.34    0.59
   4   5 -11    9.27    0.58
   4   5 -11    6.87    0.61
  -4  -5  11    8.42    0.41
  -4  -5  11    8.12    0.60
  -4  -5  11    7.73    0.58
   3   5 -11   10.09    0.66
  -3  -5  11   10.90    0.69
  -3  -5  11    9.83    0.47
  -3  -5  11    9.36    0.77
   2   5 -11    9.55    0.46
   2   5 -11   10.36    0.69
  -2  -5  11    8.63    0.50
  -2  -5  11    6.81    0.73
  -2  -5  11    9.41    0.65
  -2  -5  11   10.33    0.68
   1   5 -11    0.86    0.25
   1   5 -11    0.82    0.18
  -1  -5  11    0.53    0.20
  -1  -5  11    0.72    0.19
  -1  -5  11    0.47    0.22
   0   5 -11    0.07    0.17
   0   5 -11   -0.19    0.25
   0  -5  11    0.13    0.16
   0  -5  11   -0.03    0.21
  -1   5 -11    0.70    0.23
  -1   5 -11    0.77    0.28
   1  -5  11    0.75    0.28
  -2   5 -11   -0.36    0.19
  -2   5 -11   -0.40    0.21
   2  -5  11   -0.20    0.22
   6   4 -11    0.02    0.15
   6   4 -11    0.22    0.19
  -6  -4  11   -0.21    0.15
  -6  -4  11   -0.32    0.15
   5   4 -11   18.04    0.78
   5   4 -11   16.91    0.94
  -5  -4  11   17.28    0.78
  -5  -4  11   16.74    0.65
  -5  -4  11   18.67    0.84
   4   4 -11    7.97    0.54
   4   4 -11    6.71    0.61
  -4  -4  11    8.16    0.44
  -4  -4  11    8.93    0.60
  -4  -4  11    7.34    0.52
   3   4 -11    6.61    0.50
  -3  -4  11    6.89    0.54
  -3  -4  11    6.39    0.41
  -3  -4  11    6.67    0.51
   2   4 -11    9.31    0.61
   2   4 -11    9.92    0.48
  -2  -4  11    8.28    0.62
  -2  -4  11    8.71    0.50
  -2  -4  11    8.48    0.63
   1   4 -11   30.32    1.20
   1   4 -11   31.29    0.99
  -1  -4  11   29.26    1.23
  -1  -4  11   29.11    1.07
  -1  -4  11   28.46    1.17
   0   4 -11   33.39    1.10
   0  -4  11   34.54    1.32
   0  -4  11   32.37    1.22
  -1   4 -11   30.90    1.09
  -1   4 -11   28.99    1.63
   1  -4  11   28.04    1.16
   1  -4  11   28.84    1.22
  -2   4 -11   27.08    1.21
  -2   4 -11   26.39    1.09
   2  -4  11   25.42    1.17
  -3   4 -11    8.39    0.68
  -3   4 -11    8.90    0.70
   3  -4  11    7.44    0.66
   7   3 -11    8.33    0.63
   7   3 -11    9.01    0.75
   7   3 -11    7.84    0.43
  -7  -3  11    8.25    0.50
  -7  -3  11    7.79    0.57
  -7  -3  11    8.77    0.51
   6   3 -11   17.57    0.70
   6   3 -11   18.18    1.01
   6   3 -11   17.56    0.79
  -6  -3  11   17.03    0.75
  -6  -3  11   18.10    0.79
  -6  -3  11   16.34    0.70
   5   3 -11   24.87    0.92
   5   3 -11   25.02    1.15
   5   3 -11   24.41    0.89
  -5  -3  11   24.92    0.88
  -5  -3  11   25.42    1.13
  -5  -3  11   26.06    1.06
   4   3 -11   30.41    1.09
   4   3 -11   32.27    1.39
  -4  -3  11   31.04    1.18
  -4  -3  11   30.74    1.12
  -4  -3  11   29.36    0.99
   3   3 -11   23.99    0.96
  -3  -3  11   23.55    0.86
  -3  -3  11   25.22    1.01
  -3  -3  11   22.84    0.96
   2   3 -11   42.16    1.24
   2   3 -11   41.75    1.40
  -2  -3  11   41.20    1.30
  -2  -3  11   42.34    1.44
  -2  -3  11   40.74    1.41
   1   3 -11   38.56    1.19
   1   3 -11   40.28    1.37
  -1  -3  11   38.93    1.28
  -1  -3  11   36.96    1.36
  -1  -3  11   39.63    1.72
   0   3 -11   34.91    1.11
   0   3 -11   33.55    1.27
   0  -3  11   32.66    1.26
   0  -3  11   32.57    1.19
   0  -3  11   33.77    1.28
  -1   3 -11   30.84    1.22
  -1   3 -11   31.62    1.10
   1  -3  11   28.89    1.20
   1  -3  11   28.41    1.16
  -2   3 -11   18.12    0.86
  -2   3 -11   18.00    0.99
   2  -3  11   17.57    0.92
  -3   3 -11    5.18    0.56
  -3   3 -11    5.07    0.53
   3  -3  11    4.58    0.55
  -4   3 -11    8.91    0.71
  -4   3 -11    7.89    0.69
   4  -3  11    8.09    0.84
   4  -3  11    7.64    0.45
   7   2 -11   15.95    0.84
   7   2 -11   13.03    0.56
   7   2 -11   15.54    0.95
  -7  -2  11   14.10    0.65
  -7  -2  11   15.81    0.69
   6   2 -11   20.84    1.06
   6   2 -11   19.29    0.73
   6   2 -11   18.83    0.86
  -6  -2  11   20.20    0.83
  -6  -2  11   18.53    0.78
  -6  -2  11   19.14    0.79
   5   2 -11    7.73    0.49
   5   2 -11    7.97    0.64
   5   2 -11    7.54    0.47
  -5  -2  11    6.67    0.45
  -5  -2  11    6.60    0.56
  -5  -2  11    7.68    0.56
   4   2 -11   11.69    0.85
   4   2 -11   12.85    0.57
   4   2 -11   12.12    0.64
  -4  -2  11   12.32    0.66
  -4  -2  11   13.43    0.70
  -4  -2  11   11.67    0.59
   3   2 -11   10.98    0.46
   3   2 -11   10.66    0.59
  -3  -2  11    9.91    0.60
  -3  -2  11   10.01    0.55
  -3  -2  11   11.17    0.64
   2   2 -11   26.49    0.93
   2   2 -11   28.02    1.04
  -2  -2  11   27.43    1.07
  -2  -2  11   26.08    1.03
  -2  -2  11   25.48    0.95
   1   2 -11   -0.05    0.10
   1   2 -11   -0.13    0.12
  -1  -2  11    0.01    0.15
  -1  -2  11    0.00    0.13
   0   2 -11    0.92    0.21
   0   2 -11    1.03    0.24
   0   2 -11    0.88    0.25
   0  -2  11    1.06    0.28
   0  -2  11    0.55    0.22
   0  -2  11    0.78    0.22
  -1   2 -11    0.33    0.17
  -1   2 -11    0.60    0.27
  -1   2 -11    0.28    0.20
   1  -2  11    0.04    0.17
   1  -2  11    0.33    0.20
   1  -2  11    0.10    0.21
  -2   2 -11    6.88    0.57
  -2   2 -11    7.25    0.55
   2  -2  11    7.01    0.58
   2  -2  11    7.28    0.62
  -3   2 -11    1.08    0.27
  -3   2 -11    1.07    0.27
   3  -2  11    1.13    0.30
  -4   2 -11    1.21    0.32
  -4   2 -11    1.11    0.29
   4  -2  11    1.10    0.28
  -5   2 -11   12.21    0.83
  -5   2 -11   12.23    0.81
   5  -2  11   12.49    0.62
   5  -2  11   10.80    0.77
   7   1 -11    1.66    0.37
   7   1 -11    2.27    0.40
  -7  -1  11    1.91    0.25
  -7  -1  11    2.35    0.31
   6   1 -11   -0.07    0.18
   6   1 -11    0.33    0.14
   6   1 -11    0.15    0.21
  -6  -1  11    0.37    0.16
  -6  -1  11    0.19    0.18
   5   1 -11    0.43    0.17
   5   1 -11    0.58    0.22
   5   1 -11    0.34    0.24
  -5  -1  11    0.14    0.15
  -5  -1  11    0.41    0.20
  -5  -1  11    0.46    0.28
   4   1 -11   14.29    0.63
   4   1 -11   12.74    0.65
   4   1 -11   13.55    0.77
  -4  -1  11   12.03    0.64
  -4  -1  11   13.00    0.70
  -4  -1  11   12.60    0.73
   3   1 -11   15.48    0.64
   3   1 -11   14.41    0.70
  -3  -1  11   14.18    0.66
  -3  -1  11   15.32    0.72
  -3  -1  11   15.24    0.76
   2   1 -11   25.97    0.99
   2   1 -11   25.93    0.77
  -2  -1  11   24.59    0.99
  -2  -1  11   25.71    1.02
  -2  -1  11   24.96    0.94
   1   1 -11   26.50    0.72
   1   1 -11   26.36    0.93
   1   1 -11   26.15    1.02
  -1  -1  11   25.93    1.04
  -1  -1  11   26.04    0.98
  -1  -1  11   26.85    1.03
   0   1 -11   42.73    1.43
   0   1 -11   44.06    1.33
   0   1 -11   43.45    1.44
   0  -1  11   44.27    1.47
   0  -1  11   43.55    1.41
   0  -1  11   43.85    1.45
  -1   1 -11   33.96    1.26
  -1   1 -11   34.84    1.17
  -1   1 -11   33.37    1.24
   1  -1  11   35.98    1.28
   1  -1  11   35.73    1.28
   1  -1  11   35.04    1.46
  -2   1 -11   32.39    1.24
  -2   1 -11   34.19    1.27
  -2   1 -11   35.38    1.21
   2  -1  11   34.15    1.27
   2  -1  11   31.05    1.25
  -3   1 -11   22.28    1.01
  -3   1 -11   21.42    0.99
  -3   1 -11   22.21    0.96
   3  -1  11   22.56    1.00
  -4   1 -11   27.36    1.17
  -4   1 -11   27.14    1.15
  -4   1 -11   26.04    1.14
   4  -1  11   28.00    1.15
  -5   1 -11   20.11    1.03
  -5   1 -11   20.98    1.04
   5  -1  11   20.30    1.00
   5  -1  11   20.86    0.88
  -6   1 -11   26.25    1.24
  -6   1 -11   23.73    1.13
   6  -1  11   25.00    1.13
   6  -1  11   25.20    1.01
   6   0 -11   18.66    0.99
   6   0 -11   15.81    0.69
   6   0 -11   17.44    0.92
  -6   0  11   15.98    0.74
  -6   0  11   17.16    0.78
   5   0 -11   29.88    1.14
   5   0 -11   29.63    1.04
   5   0 -11   31.62    1.28
  -5   0  11   30.41    1.09
  -5   0  11   32.04    1.23
   4   0 -11   94.84    2.60
   4   0 -11   92.19    2.41
   4   0 -11   92.21    2.40
  -4   0  11   86.63    2.41
  -4   0  11   92.65    2.47
  -4   0  11   87.48    2.38
   3   0 -11   55.39    1.54
   3   0 -11   55.58    1.63
  -3   0  11   57.16    1.69
  -3   0  11   53.52    1.64
  -3   0  11   51.59    1.62
   2   0 -11   92.04    2.44
   2   0 -11   93.81    2.30
  -2   0  11   90.03    2.44
  -2   0  11   87.34    2.40
  -2   0  11   92.74    2.48
   1   0 -11   58.56    1.74
   1   0 -11   58.60    1.67
  -1   0  11   57.82    1.76
  -1   0  11   57.90    1.70
   0   0 -11   55.14    1.58
   0   0 -11   54.07    1.67
   0   0  11   55.18    1.70
   0   0  11   55.44    1.68
   0   0  11   52.87    1.65
  -1   0 -11   66.10    1.96
  -1   0 -11   67.26    1.97
  -1   0 -11   67.03    1.88
   1   0  11   68.12    2.05
   1   0  11   68.41    2.04
   1   0  11   66.73    1.98
  -2   0 -11   45.51    1.50
  -2   0 -11   45.17    1.43
  -2   0 -11   42.77    1.47
  -2   0 -11   42.91    1.15
   2   0  11   45.20    1.49
   2   0  11   46.37    1.51
   2   0  11   43.78    1.52
  -3   0 -11   25.25    1.06
  -3   0 -11   25.38    1.06
  -3   0 -11   25.77    1.04
  -3   0 -11   25.43    0.77
   3   0  11   25.78    1.07
  -4   0 -11   24.68    1.08
  -4   0 -11   26.02    1.11
  -4   0 -11   23.76    0.80
  -4   0 -11   25.03    1.28
   4   0  11   26.19    1.07
  -5   0 -11    1.95    0.29
  -5   0 -11    1.89    0.37
  -5   0 -11    2.92    0.44
  -5   0 -11    2.56    0.39
   5   0  11    2.65    0.40
  -6   0 -11   -0.48    0.24
  -6   0 -11   -0.21    0.19
  -6   0 -11    0.21    0.24
   6   0  11    0.00    0.19
   6   0  11    0.30    0.22
   6  -1 -11   18.23    0.94
   6  -1 -11   15.96    0.74
   6  -1 -11   17.80    0.98
  -6   1  11   16.46    0.80
  -6   1  11   17.65    0.78
   5  -1 -11   16.03    0.88
   5  -1 -11   16.38    0.85
   5  -1 -11   15.06    0.71
  -5   1  11   16.00    0.76
  -5   1  11   16.61    0.79
   4  -1 -11    7.22    0.57
   4  -1 -11    7.55    0.53
   4  -1 -11    7.54    0.61
  -4   1  11    6.15    0.49
  -4   1  11    7.03    0.67
   3  -1 -11    3.22    0.39
   3  -1 -11    2.53    0.35
   3  -1 -11    3.58    0.35
  -3   1  11    2.59    0.34
  -3   1  11    3.05    0.39
  -3   1  11    3.01    0.37
   2  -1 -11    2.87    0.36
  -2   1  11    2.74    0.36
  -2   1  11    2.49    0.33
  -2   1  11    1.80    0.29
   1  -1 -11    3.28    0.37
   1  -1 -11    3.18    0.38
  -1   1  11    4.10    0.40
  -1   1  11    4.02    0.42
  -1   1  11    4.17    0.40
   0  -1 -11   -0.25    0.14
   0  -1 -11   -0.04    0.15
   0  -1 -11    0.07    0.14
   0   1  11   -0.14    0.14
   0   1  11    0.33    0.18
   0   1  11   -0.13    0.12
  -1  -1 -11    4.52    0.42
  -1  -1 -11    4.81    0.44
  -1  -1 -11    4.90    0.43
   1   1  11    4.87    0.46
   1   1  11    4.55    0.52
   1   1  11    5.19    0.48
  -2  -1 -11   12.44    0.67
  -2  -1 -11   11.76    0.69
  -2  -1 -11   11.64    0.83
   2   1  11   12.08    0.69
   2   1  11   11.06    0.64
   2   1  11   10.82    0.67
  -3  -1 -11    9.15    0.62
  -3  -1 -11    9.84    0.47
  -3  -1 -11    8.97    0.59
  -3  -1 -11    7.52    0.91
   3   1  11    9.74    0.64
  -4  -1 -11   22.58    1.15
  -4  -1 -11   20.43    0.76
  -4  -1 -11   23.17    1.06
  -4  -1 -11   19.34    1.33
   4   1  11   20.69    0.95
  -5  -1 -11    8.94    0.68
  -5  -1 -11    7.21    0.47
  -5  -1 -11    8.66    0.62
  -5  -1 -11    8.14    0.64
   5   1  11    8.06    0.59
  -6  -1 -11   16.54    1.02
  -6  -1 -11   18.71    0.93
  -6  -1 -11   18.21    0.97
  -6  -1 -11   19.13    0.94
   6   1  11   18.45    0.95
   6   1  11   18.94    0.91
   6  -2 -11    0.18    0.23
   6  -2 -11   -0.11    0.24
   6  -2 -11    0.04    0.17
  -6   2  11    0.50    0.21
  -6   2  11    0.26    0.19
   5  -2 -11    0.71    0.25
   5  -2 -11    0.43    0.22
   5  -2 -11    0.66    0.26
  -5   2  11    0.57    0.21
  -5   2  11    0.56    0.22
   4  -2 -11   13.75    0.78
   4  -2 -11   15.28    0.79
   4  -2 -11   14.96    0.73
  -4   2  11   14.56    0.77
  -4   2  11   12.44    0.70
   3  -2 -11   13.01    0.69
   3  -2 -11   12.52    0.70
  -3   2  11   12.65    0.69
  -3   2  11   13.25    0.73
   2  -2 -11   16.63    0.78
  -2   2  11   15.03    0.85
  -2   2  11   15.44    0.76
  -2   2  11   16.35    0.78
   1  -2 -11    8.12    0.56
  -1   2  11    8.03    0.55
  -1   2  11    8.24    0.57
  -1   2  11    8.26    0.54
   0  -2 -11   22.64    0.94
   0  -2 -11   23.93    0.98
   0  -2 -11   23.47    0.94
   0   2  11   24.25    0.98
   0   2  11   22.59    0.94
   0   2  11   24.27    1.00
  -1  -2 -11   30.60    1.15
  -1  -2 -11   29.64    1.13
  -1  -2 -11   30.91    1.10
   1   2  11   30.95    1.16
   1   2  11   31.17    1.14
   1   2  11   29.90    1.14
  -2  -2 -11   51.31    1.78
  -2  -2 -11   53.13    1.66
  -2  -2 -11   53.25    1.60
   2   2  11   48.97    1.62
   2   2  11   54.43    1.68
  -3  -2 -11   39.00    1.73
  -3  -2 -11   40.92    1.41
  -3  -2 -11   40.80    1.37
   3   2  11   41.49    1.41
  -4  -2 -11   51.83    1.67
  -4  -2 -11   50.15    1.65
  -4  -2 -11   49.79    1.48
   4   2  11   50.63    1.63
  -5  -2 -11   16.91    0.75
  -5  -2 -11   17.90    0.88
  -5  -2 -11   17.03    0.94
   5   2  11   17.30    0.83
  -6  -2 -11   25.22    1.12
  -6  -2 -11   24.23    0.96
  -6  -2 -11   23.88    1.33
  -6  -2 -11   24.73    1.07
   6   2  11   23.93    1.02
  -7  -2 -11   22.49    1.12
  -7  -2 -11   24.95    1.06
  -7  -2 -11   20.62    1.53
   7   2  11   23.13    1.12
   7   2  11   22.09    0.98
   5  -3 -11   16.33    0.80
   5  -3 -11   17.08    0.92
   5  -3 -11   18.29    0.99
  -5   3  11   17.67    0.90
  -5   3  11   17.14    0.85
   4  -3 -11   23.76    1.01
   4  -3 -11   24.44    1.06
  -4   3  11   22.45    1.00
  -4   3  11   24.55    1.06
   3  -3 -11   64.02    1.90
   3  -3 -11   63.99    1.91
  -3   3  11   61.66    1.91
  -3   3  11   63.74    1.96
   2  -3 -11   19.73    0.84
   2  -3 -11   18.47    0.87
  -2   3  11   19.55    0.92
  -2   3  11   19.95    0.90
   1  -3 -11   55.79    1.71
  -1   3  11   57.19    1.76
  -1   3  11   50.72    2.12
   0  -3 -11   82.65    2.30
   0  -3 -11   79.78    2.29
   0   3  11   83.25    2.33
   0   3  11   81.68    2.30
  -1  -3 -11   59.20    1.75
  -1  -3 -11   56.95    1.77
   1   3  11   61.06    1.84
   1   3  11   55.55    1.76
  -2  -3 -11   14.22    0.71
  -2  -3 -11   13.58    0.72
  -2  -3 -11   14.32    0.75
   2   3  11   12.73    0.71
   2   3  11   13.12    0.74
  -3  -3 -11   36.08    1.36
  -3  -3 -11   35.08    1.26
  -3  -3 -11   37.63    1.33
   3   3  11   36.97    1.32
  -4  -3 -11   11.14    0.77
  -4  -3 -11    9.78    0.90
  -4  -3 -11   10.93    0.71
   4   3  11   10.80    0.68
  -5  -3 -11    2.88    0.38
  -5  -3 -11    3.38    0.47
  -5  -3 -11    2.93    0.43
  -5  -3 -11    3.43    0.46
   5   3  11    3.52    0.42
  -6  -3 -11    2.18    0.36
  -6  -3 -11    2.21    0.35
  -6  -3 -11    2.90    0.43
   6   3  11    2.08    0.32
  -7  -3 -11   -0.57    0.28
  -7  -3 -11   -0.17    0.18
  -7  -3 -11    0.14    0.23
   7   3  11    0.50    0.22
   7   3  11    0.81    0.30
   4  -4 -11    6.30    0.56
   4  -4 -11    6.32    0.55
  -4   4  11    6.65    0.60
  -4   4  11    6.84    0.60
   3  -4 -11    4.12    0.44
   3  -4 -11    4.20    0.49
  -3   4  11    4.54    0.51
  -3   4  11    3.50    0.49
   2  -4 -11    0.29    0.18
   2  -4 -11   -0.24    0.13
  -2   4  11    0.27    0.19
  -2   4  11    0.09    0.18
   1  -4 -11    1.36    0.28
  -1   4  11    0.77    0.25
  -1   4  11    0.71    0.27
   0  -4 -11    0.56    0.22
   0   4  11    0.24    0.18
   0   4  11    0.34    0.19
  -1  -4 -11    0.29    0.21
  -1  -4 -11    0.00    0.14
   1   4  11    0.22    0.20
  -2  -4 -11    8.41    0.61
  -2  -4 -11    9.06    0.61
  -2  -4 -11    9.10    0.60
   2   4  11    9.25    0.64
  -3  -4 -11   12.24    0.72
  -3  -4 -11   10.87    0.68
  -3  -4 -11   11.82    0.68
   3   4  11   13.37    0.75
  -4  -4 -11   25.30    1.12
  -4  -4 -11   24.48    1.06
  -4  -4 -11   26.80    1.32
   4   4  11   25.08    1.06
  -5  -4 -11    5.36    0.61
  -5  -4 -11    5.52    0.53
  -5  -4 -11    6.10    0.55
   5   4  11    6.09    0.52
  -6  -4 -11   14.35    0.98
  -6  -4 -11   14.25    0.81
  -6  -4 -11   14.53    0.79
   6   4  11   13.30    0.75
  -7  -4 -11   20.23    0.99
  -7  -4 -11   19.23    0.92
  -7  -4 -11   15.86    0.96
   7   4  11   19.04    0.90
   7   4  11   20.93    1.12
   3  -5 -11   11.53    0.76
   3  -5 -11   11.08    0.64
  -3   5  11    9.82    0.73
   2  -5 -11    5.97    0.59
   2  -5 -11    8.01    0.51
  -2   5  11    9.29    0.68
   1  -5 -11   19.10    0.79
   1  -5 -11   20.36    0.98
  -1   5  11   19.80    0.99
   0  -5 -11   20.22    0.98
   0   5  11   21.69    1.07
  -1  -5 -11   48.48    1.67
   1   5  11   52.11    1.72
  -2  -5 -11   16.00    1.15
  -2  -5 -11   17.54    0.94
   2   5  11   18.33    0.91
  -3  -5 -11   57.30    1.88
  -3  -5 -11   56.12    1.81
  -3  -5 -11   50.37    1.93
   3   5  11   57.55    1.81
  -4  -5 -11   57.17    1.83
  -4  -5 -11   53.31    1.78
  -4  -5 -11   58.06    1.78
   4   5  11   56.47    1.81
  -5  -5 -11   20.63    0.98
  -5  -5 -11   22.19    0.99
  -5  -5 -11   22.31    1.01
   5   5  11   21.64    0.98
  -6  -5 -11   20.33    0.96
  -6  -5 -11   20.86    0.98
  -6  -5 -11   21.76    1.01
   6   5  11   21.47    0.96
   2  -6 -11   13.62    0.86
   2  -6 -11   14.12    0.67
  -2   6  11   14.44    0.89
   1  -6 -11   19.01    0.77
   1  -6 -11   19.72    1.01
  -1   6  11   19.29    1.04
   0  -6 -11   15.52    0.87
   0  -6 -11   15.56    0.66
   0   6  11   16.10    0.92
  -1  -6 -11   22.13    1.06
   1   6  11   24.23    1.12
  -2  -6 -11    5.29    0.56
   2   6  11    5.58    0.62
  -3  -6 -11    2.11    0.34
  -3  -6 -11    1.90    0.32
   3   6  11    1.93    0.34
  -4  -6 -11    0.48    0.21
  -4  -6 -11    0.16    0.24
   4   6  11    0.27    0.22
  -5  -6 -11    6.13    0.55
  -5  -6 -11    5.98    0.57
   5   6  11    5.99    0.58
  -6  -6 -11   -0.08    0.20
  -6  -6 -11   -0.10    0.20
  -6  -6 -11    0.88    0.28
   6   6  11   -0.01    0.21
   0  -7 -11    0.65    0.28
   0  -7 -11    0.70    0.17
   0   7  11    0.35    0.25
  -1  -7 -11   -0.10    0.22
  -1  -7 -11    0.24    0.14
   1   7  11    0.24    0.25
  -2  -7 -11    0.31    0.24
   2   7  11    0.19    0.25
  -3  -7 -11    3.80    0.53
   3   7  11    4.49    0.56
  -4  -7 -11    8.95    0.64
  -4  -7 -11    8.78    0.68
   4   7  11    9.37    0.72
  -5  -7 -11    3.91    0.52
  -5  -7 -11    4.83    0.52
   5   7  11    4.36    0.56
   2   6 -12   -0.40    0.40
   2   6 -12    0.27    0.14
  -2  -6  12    0.20    0.23
  -2  -6  12    0.02    0.20
   5   5 -12    9.84    0.63
   5   5 -12    7.82    0.69
  -5  -5  12   10.47    0.67
  -5  -5  12    8.20    0.62
   4   5 -12   18.11    1.02
   4   5 -12   22.75    0.97
  -4  -5  12   19.58    0.72
  -4  -5  12   19.18    1.12
  -4  -5  12   22.73    1.03
   3   5 -12   20.18    0.96
  -3  -5  12   18.54    0.75
  -3  -5  12   20.34    0.99
  -3  -5  12   20.33    0.99
   2   5 -12   21.83    0.77
   2   5 -12   20.59    1.02
  -2  -5  12   20.27    1.02
  -2  -5  12   19.75    0.83
  -2  -5  12   19.56    0.92
   1   5 -12   32.60    1.05
   1   5 -12   32.86    1.53
  -1  -5  12   33.30    1.37
  -1  -5  12   29.55    1.18
  -1  -5  12   30.10    1.19
   0   5 -12   12.10    0.63
   0   5 -12   12.79    0.84
   0  -5  12   13.26    0.82
   0  -5  12   10.60    0.59
  -1   5 -12    8.93    0.77
  -1   5 -12    9.09    0.79
   1  -5  12    8.45    0.48
   1  -5  12    8.39    0.70
   6   4 -12   22.37    1.17
   6   4 -12   21.53    0.87
  -6  -4  12   23.45    0.92
  -6  -4  12   23.73    0.98
  -6  -4  12   20.09    0.79
   5   4 -12   12.50    0.85
   5   4 -12   12.95    0.68
  -5  -4  12   12.26    0.59
  -5  -4  12   13.90    0.75
  -5  -4  12   15.15    0.72
   4   4 -12   14.70    0.75
  -4  -4  12   15.05    0.77
  -4  -4  12   13.31    0.63
  -4  -4  12   15.63    0.81
   3   4 -12   22.84    0.99
  -3  -4  12   22.67    1.03
  -3  -4  12   22.54    0.86
  -3  -4  12   20.32    1.15
   2   4 -12   14.13    0.79
   2   4 -12   13.40    0.61
  -2  -4  12   13.28    0.77
  -2  -4  12   13.62    0.81
  -2  -4  12   14.01    0.69
   1   4 -12    0.16    0.14
   1   4 -12   -0.13    0.19
  -1  -4  12   -0.08    0.16
  -1  -4  12    0.05    0.22
   0   4 -12    0.89    0.22
   0   4 -12    0.90    0.36
   0  -4  12    0.66    0.23
   0  -4  12    0.87    0.28
  -1   4 -12    1.90    0.38
  -1   4 -12    2.10    0.31
   1  -4  12    2.21    0.39
  -2   4 -12    0.23    0.22
  -2   4 -12   -0.01    0.25
   2  -4  12    0.53    0.28
   6   3 -12    4.12    0.54
   6   3 -12    3.46    0.42
   6   3 -12    3.32    0.38
  -6  -3  12    3.41    0.43
   5   3 -12    0.18    0.18
   5   3 -12    0.34    0.23
  -5  -3  12    0.31    0.19
  -5  -3  12    0.27    0.19
  -5  -3  12   -0.08    0.16
   4   3 -12    3.30    0.48
   4   3 -12    3.29    0.40
  -4  -3  12    2.96    0.37
  -4  -3  12    3.88    0.44
  -4  -3  12    4.23    0.45
   3   3 -12    0.92    0.22
  -3  -3  12    0.95    0.22
  -3  -3  12    1.09    0.27
  -3  -3  12    0.82    0.23
   2   3 -12   -0.11    0.12
   2   3 -12    0.02    0.17
  -2  -3  12   -0.53    0.25
  -2  -3  12   -0.14    0.13
  -2  -3  12    0.15    0.18
   1   3 -12   27.50    0.95
   1   3 -12   26.78    1.11
  -1  -3  12   27.10    1.14
  -1  -3  12   25.94    1.11
  -1  -3  12   24.38    1.05
   0   3 -12   17.35    0.76
   0   3 -12   17.64    0.91
   0  -3  12   17.52    0.91
   0  -3  12   16.10    0.83
  -1   3 -12    7.91    0.55
   1  -3  12    8.52    0.66
  -2   3 -12    7.43    0.87
  -2   3 -12    7.27    0.65
   2  -3  12    7.66    0.66
  -3   3 -12   24.23    1.16
  -3   3 -12   23.38    1.07
   3  -3  12   23.28    1.14
   6   2 -12   13.40    0.89
   6   2 -12   13.13    0.72
   6   2 -12   13.12    0.63
  -6  -2  12   14.34    0.73
  -6  -2  12   12.92    0.78
   5   2 -12   19.11    0.79
   5   2 -12   17.34    0.78
   5   2 -12   19.05    1.01
  -5  -2  12   18.31    0.83
  -5  -2  12   18.14    0.78
  -5  -2  12   18.78    0.86
   4   2 -12   35.77    1.21
   4   2 -12   33.83    1.35
   4   2 -12   34.68    1.06
  -4  -2  12   33.10    1.21
  -4  -2  12   37.85    1.30
  -4  -2  12   27.35    1.50
   3   2 -12   20.11    0.66
   3   2 -12   21.35    0.90
  -3  -2  12   20.44    0.91
  -3  -2  12   18.96    0.82
  -3  -2  12   20.67    0.96
   2   2 -12   30.76    1.16
   2   2 -12   30.22    1.05
  -2  -2  12   31.09    1.38
  -2  -2  12   29.53    1.09
  -2  -2  12   29.99    1.17
   1   2 -12   15.41    0.69
   1   2 -12   15.73    0.80
  -1  -2  12   14.94    0.79
  -1  -2  12   12.47    1.02
  -1  -2  12   15.13    0.81
   0   2 -12   25.66    0.96
   0   2 -12   26.17    1.10
   0  -2  12   26.32    1.07
   0  -2  12   25.83    1.12
   0  -2  12   27.35    1.13
  -1   2 -12   32.68    1.14
  -1   2 -12   32.24    1.27
   1  -2  12   30.89    1.33
   1  -2  12   31.19    1.26
  -2   2 -12   13.97    0.75
  -2   2 -12   13.93    0.82
   2  -2  12   13.40    0.82
  -3   2 -12   18.78    0.98
  -3   2 -12   17.29    0.90
   3  -2  12   19.01    1.14
  -4   2 -12   13.26    0.84
  -4   2 -12   13.84    0.87
   4  -2  12   13.28    0.99
   6   1 -12   26.69    1.16
   6   1 -12   24.34    0.92
   6   1 -12   25.42    1.22
  -6  -1  12   26.26    1.03
  -6  -1  12   26.12    1.22
   5   1 -12   29.51    1.29
   5   1 -12   28.55    1.05
   5   1 -12   28.80    1.08
  -5  -1  12   29.44    1.09
  -5  -1  12   31.34    1.15
   4   1 -12   20.60    0.88
   4   1 -12   20.68    0.81
   4   1 -12   20.99    1.01
  -4  -1  12   21.20    0.90
  -4  -1  12   20.94    0.94
  -4  -1  12   20.21    0.86
   3   1 -12   20.00    0.87
   3   1 -12   19.09    0.71
  -3  -1  12   20.08    0.89
  -3  -1  12   18.77    0.83
  -3  -1  12   21.55    1.31
   2   1 -12   41.84    1.39
   2   1 -12   41.80    1.12
  -2  -1  12   40.19    1.40
  -2  -1  12   41.51    1.43
  -2  -1  12   40.69    1.38
   1   1 -12    8.76    0.59
   1   1 -12    7.84    0.51
  -1  -1  12    8.74    0.79
  -1  -1  12    8.25    0.59
  -1  -1  12    6.96    0.53
   0   1 -12    6.94    0.56
   0   1 -12    7.28    0.49
   0  -1  12    6.62    0.56
   0  -1  12    5.81    0.55
   0  -1  12    6.40    0.54
  -1   1 -12    5.69    0.55
  -1   1 -12    6.27    0.49
   1  -1  12    6.14    0.56
   1  -1  12    6.17    0.55
  -2   1 -12   13.35    0.71
  -2   1 -12   12.76    0.77
   2  -1  12   13.43    0.78
  -3   1 -12    1.12    0.28
  -3   1 -12    1.02    0.27
   3  -1  12    1.51    0.29
  -4   1 -12    0.26    0.24
  -4   1 -12    0.00    0.21
   4  -1  12    0.16    0.20
  -5   1 -12    4.73    0.58
  -5   1 -12    5.74    0.59
   5  -1  12    4.78    0.57
   6   0 -12    0.26    0.19
   6   0 -12    0.27    0.25
   6   0 -12    0.17    0.22
  -6   0  12   -0.16    0.17
  -6   0  12    0.26    0.19
   5   0 -12   -0.08    0.16
   5   0 -12   -0.03    0.15
   5   0 -12    0.38    0.21
  -5   0  12   -0.09    0.17
  -5   0  12    0.15    0.17
   4   0 -12   12.45    0.77
   4   0 -12   11.89    0.65
   4   0 -12   12.90    0.64
  -4   0  12   12.48    0.70
  -4   0  12   11.53    0.66
   3   0 -12    3.43    0.40
   3   0 -12    2.92    0.32
  -3   0  12    3.42    0.40
  -3   0  12    2.33    0.38
   2   0 -12    7.02    0.53
   2   0 -12    7.00    0.40
  -2   0  12    7.81    0.57
  -2   0  12    8.54    0.57
  -2   0  12    6.94    0.52
   1   0 -12    7.88    0.55
   1   0 -12    7.91    0.52
  -1   0  12    6.91    0.55
  -1   0  12    7.45    0.56
  -1   0  12    6.55    0.53
   0   0 -12   34.56    1.18
   0   0 -12   33.90    1.26
   0   0  12   33.61    1.26
   0   0  12   34.20    1.28
   0   0  12   32.77    1.23
  -1   0 -12   56.55    1.79
  -1   0 -12   54.96    1.67
   1   0  12   57.36    1.80
   1   0  12   54.11    1.76
   1   0  12   58.16    1.85
  -2   0 -12   31.87    1.23
  -2   0 -12   29.88    0.86
  -2   0 -12   33.14    1.18
   2   0  12   31.34    1.24
  -3   0 -12   44.12    1.59
  -3   0 -12   43.96    1.89
  -3   0 -12   42.19    1.14
   3   0  12   42.62    1.52
  -4   0 -12   35.48    1.40
  -4   0 -12   35.26    1.10
  -4   0 -12   37.60    1.40
   4   0  12   37.63    1.40
  -5   0 -12   36.38    1.13
  -5   0 -12   39.99    1.50
  -5   0 -12   38.11    1.47
   5   0  12   37.47    1.44
   5  -1 -12   16.10    0.89
   5  -1 -12   14.59    0.88
   5  -1 -12   17.48    1.05
  -5   1  12   15.63    0.79
  -5   1  12   16.20    0.81
   4  -1 -12   17.77    0.81
   4  -1 -12   18.24    0.84
   4  -1 -12   18.06    0.92
  -4   1  12   18.87    0.88
  -4   1  12   16.93    0.83
   3  -1 -12   25.92    1.03
   3  -1 -12   25.89    1.07
   3  -1 -12   26.28    0.97
  -3   1  12   25.28    1.04
  -3   1  12   25.86    1.07
   2  -1 -12   22.67    0.95
  -2   1  12   21.51    0.95
  -2   1  12   23.20    1.00
   1  -1 -12   10.74    0.66
   1  -1 -12   11.51    0.65
  -1   1  12   11.86    0.70
  -1   1  12   10.11    0.76
  -1   1  12   10.31    0.65
   0  -1 -12   67.72    2.00
   0  -1 -12   66.33    1.91
   0   1  12   64.99    1.99
   0   1  12   65.31    1.97
   0   1  12   67.41    2.00
  -1  -1 -12   45.40    1.54
  -1  -1 -12   46.17    1.85
  -1  -1 -12   46.04    1.46
   1   1  12   45.09    1.54
   1   1  12   44.87    1.52
  -2  -1 -12   55.63    1.78
  -2  -1 -12   54.94    1.70
   2   1  12   57.20    1.81
  -3  -1 -12   13.42    0.79
  -3  -1 -12   14.19    0.58
  -3  -1 -12   14.84    1.08
  -3  -1 -12   13.81    0.97
   3   1  12   14.30    0.79
  -4  -1 -12   20.31    0.98
  -4  -1 -12   19.68    1.06
  -4  -1 -12   19.49    0.74
  -4  -1 -12   20.61    0.96
   4   1  12   20.27    0.96
  -5  -1 -12    8.45    0.67
  -5  -1 -12    7.23    0.63
  -5  -1 -12    7.35    0.48
   5   1  12    6.77    0.59
  -6  -1 -12   10.21    0.71
  -6  -1 -12    9.23    0.63
  -6  -1 -12   10.19    0.77
   6   1  12    9.58    0.70
   6   1  12    8.83    0.69
   5  -2 -12   19.78    1.02
   5  -2 -12   20.61    1.01
   5  -2 -12   19.24    0.88
  -5   2  12   19.93    0.96
  -5   2  12   19.39    0.90
   4  -2 -12    6.29    0.57
   4  -2 -12    6.21    0.52
  -4   2  12    6.05    0.55
  -4   2  12    6.48    0.55
   3  -2 -12   27.82    1.12
   3  -2 -12   28.03    1.11
  -3   2  12   28.15    1.13
  -3   2  12   28.99    1.16
   2  -2 -12   20.11    0.91
  -2   2  12   20.01    1.01
  -2   2  12   18.65    1.16
   1  -2 -12   31.06    1.19
  -1   2  12   30.63    1.19
  -1   2  12   30.79    1.20
   0  -2 -12   13.05    0.70
   0  -2 -12   13.28    0.74
   0   2  12   12.49    0.74
   0   2  12   12.43    0.73
  -1  -2 -12    1.46    0.33
  -1  -2 -12    0.91    0.23
   1   2  12    0.71    0.19
   1   2  12    0.83    0.23
  -2  -2 -12    0.03    0.19
  -2  -2 -12   -0.02    0.17
  -2  -2 -12    0.04    0.16
   2   2  12   -0.01    0.17
  -3  -2 -12    1.26    0.36
  -3  -2 -12    1.42    0.29
  -3  -2 -12    0.99    0.39
   3   2  12    1.00    0.24
  -4  -2 -12    0.19    0.19
  -4  -2 -12    0.05    0.16
  -4  -2 -12   -0.01    0.20
   4   2  12    0.26    0.21
  -5  -2 -12    4.45    0.48
  -5  -2 -12    2.57    0.41
  -5  -2 -12    5.01    0.53
  -5  -2 -12    4.09    0.50
   5   2  12    3.48    0.46
  -6  -2 -12    2.30    0.42
  -6  -2 -12    1.53    0.42
  -6  -2 -12    3.21    0.46
   6   2  12    2.23    0.38
   4  -3 -12   -0.13    0.17
   4  -3 -12   -0.33    0.16
   4  -3 -12   -0.02    0.22
  -4   3  12    0.00    0.19
  -4   3  12    0.13    0.22
   3  -3 -12    3.76    0.45
   3  -3 -12    3.38    0.44
  -3   3  12    4.22    0.48
  -3   3  12    2.86    0.41
   2  -3 -12    8.95    0.59
   2  -3 -12    8.55    0.61
  -2   3  12    9.64    0.67
  -2   3  12    8.95    0.62
   1  -3 -12    0.94    0.24
  -1   3  12    0.36    0.19
  -1   3  12    0.75    0.30
   0  -3 -12   40.94    1.42
   0   3  12   38.69    1.46
   0   3  12   39.59    1.44
  -1  -3 -12   57.28    1.79
  -1  -3 -12   59.36    1.85
   1   3  12   58.54    1.87
  -2  -3 -12   45.97    1.58
  -2  -3 -12   48.12    1.70
   2   3  12   46.73    1.60
  -3  -3 -12   11.87    0.71
  -3  -3 -12   11.84    0.90
  -3  -3 -12   13.15    0.83
   3   3  12   12.18    0.74
  -4  -3 -12   35.24    1.35
  -4  -3 -12   34.94    1.30
  -4  -3 -12   34.21    1.33
   4   3  12   35.79    1.34
  -5  -3 -12   11.91    0.74
  -5  -3 -12   13.45    0.81
  -5  -3 -12   13.01    0.78
   5   3  12   14.36    0.80
  -6  -3 -12   34.13    1.34
  -6  -3 -12   31.72    1.33
  -6  -3 -12   34.42    1.35
   6   3  12   35.26    1.34
   3  -4 -12   32.69    1.30
   3  -4 -12   32.39    1.23
  -3   4  12   33.12    1.34
   2  -4 -12   30.67    1.24
   2  -4 -12   32.08    1.17
  -2   4  12   31.71    1.30
   1  -4 -12   35.58    1.37
  -1   4  12   37.80    1.42
   0  -4 -12   29.55    1.21
   0   4  12   29.92    1.24
  -1  -4 -12   45.79    1.56
  -1  -4 -12   45.07    1.59
   1   4  12   47.88    1.64
  -2  -4 -12   24.42    1.04
  -2  -4 -12   23.97    1.38
   2   4  12   24.62    1.09
  -3  -4 -12   15.66    0.85
  -3  -4 -12   15.67    0.81
   3   4  12   15.92    0.86
  -4  -4 -12   40.64    1.44
  -4  -4 -12   39.44    1.47
   4   4  12   39.69    1.45
  -5  -4 -12   20.64    0.99
  -5  -4 -12   15.61    1.17
  -5  -4 -12   19.90    0.95
   5   4  12   19.78    0.96
  -6  -4 -12    9.56    0.68
  -6  -4 -12   10.64    0.73
  -6  -4 -12    8.27    0.79
   6   4  12    9.00    0.67
   2  -5 -12    1.26    0.26
   2  -5 -12    1.33    0.35
  -2   5  12    1.50    0.34
   1  -5 -12    3.66    0.38
   1  -5 -12    2.88    0.45
  -1   5  12    3.86    0.50
   0  -5 -12    0.78    0.36
   0   5  12    0.48    0.24
  -1  -5 -12    0.06    0.20
   1   5  12   -0.15    0.18
  -2  -5 -12    1.09    0.27
  -2  -5 -12    0.56    0.24
   2   5  12    1.12    0.37
  -3  -5 -12    1.03    0.28
  -3  -5 -12    0.34    0.21
   3   5  12    0.40    0.22
  -4  -5 -12    3.91    0.49
  -4  -5 -12    3.73    0.49
   4   5  12    3.30    0.46
  -5  -5 -12   -0.04    0.20
  -5  -5 -12   -0.23    0.20
   5   5  12   -0.24    0.18
  -6  -5 -12    8.11    0.66
  -6  -5 -12    8.69    0.67
   6   5  12    8.47    0.65
   1  -6 -12    5.59    0.46
   1  -6 -12    6.21    0.63
  -1   6  12    6.04    0.64
   0  -6 -12    0.64    0.24
   0  -6 -12    1.34    0.24
   0   6  12    0.78    0.30
  -1  -6 -12    7.27    0.65
   1   6  12    6.42    0.65
  -2  -6 -12   13.47    0.84
   2   6  12   12.79    0.84
  -3  -6 -12   13.55    0.80
  -3  -6 -12   14.40    0.86
   3   6  12   14.15    0.87
  -4  -6 -12   23.06    1.05
  -4  -6 -12   22.09    1.08
   4   6  12   23.07    1.11
  -5  -6 -12   23.18    1.06
  -5  -6 -12   23.65    1.11
   5   6  12   22.94    1.10
  -2  -7 -12   21.02    1.08
   2   7  12   19.98    1.09
  -3  -7 -12   28.46    1.29
   3   7  12   29.31    1.30
   3   5 -13    0.14    0.23
  -3  -5  13   -0.05    0.18
  -3  -5  13    0.00    0.18
   2   5 -13    0.13    0.14
   2   5 -13    0.18    0.23
  -2  -5  13    0.39    0.21
  -2  -5  13    0.10    0.18
   1   5 -13    1.33    0.34
   1   5 -13    0.99    0.22
  -1  -5  13    0.81    0.26
  -1  -5  13    1.21    0.33
   4   4 -13   18.78    0.90
   4   4 -13   15.79    0.97
  -4  -4  13   18.76    0.78
  -4  -4  13   19.94    1.12
  -4  -4  13   19.52    0.96
   3   4 -13   10.89    0.72
  -3  -4  13   10.84    0.63
  -3  -4  13   12.21    0.75
  -3  -4  13   12.46    0.78
   2   4 -13   14.16    0.84
   2   4 -13   13.90    0.65
  -2  -4  13   13.89    0.84
  -2  -4  13   12.79    1.08
   1   4 -13   18.18    0.77
   1   4 -13   17.58    1.02
  -1  -4  13   16.90    0.85
  -1  -4  13   18.45    0.99
   0   4 -13   12.40    0.84
   0   4 -13   12.82    0.68
   0  -4  13   13.18    0.84
  -1   4 -13   15.04    0.96
  -1   4 -13   16.06    0.80
   1  -4  13   17.69    0.99
   5   3 -13    6.56    0.55
   5   3 -13    6.16    0.64
  -5  -3  13    7.47    0.57
  -5  -3  13    6.55    0.56
   4   3 -13   23.67    0.99
   4   3 -13   20.66    1.10
  -4  -3  13   23.75    1.05
  -4  -3  13   25.14    1.11
  -4  -3  13   25.67    1.08
   3   3 -13   11.13    0.69
  -3  -3  13   11.45    0.78
  -3  -3  13   11.78    0.74
  -3  -3  13   11.32    0.73
   2   3 -13   14.86    0.69
   2   3 -13   13.03    0.78
  -2  -3  13   14.49    0.83
  -2  -3  13   13.84    0.73
  -2  -3  13   14.53    0.85
   1   3 -13   14.03    0.67
   1   3 -13   14.07    0.83
  -1  -3  13   14.68    0.86
  -1  -3  13   14.24    0.76
   0   3 -13    4.51    0.42
   0  -3  13    5.26    0.56
  -1   3 -13   11.46    0.80
  -1   3 -13   11.81    0.96
   1  -3  13   12.60    0.82
  -2   3 -13   10.50    0.69
  -2   3 -13    9.66    0.77
   2  -3  13    9.60    0.76
   5   2 -13    2.76    0.45
   5   2 -13    3.39    0.40
  -5  -2  13    4.33    0.48
  -5  -2  13    4.64    0.48
   4   2 -13   -0.30    0.13
   4   2 -13    0.10    0.19
   4   2 -13   -0.30    0.15
  -4  -2  13    0.33    0.19
  -4  -2  13    0.37    0.23
   3   2 -13    5.25    0.50
   3   2 -13    5.30    0.32
  -3  -2  13    4.86    0.59
  -3  -2  13    4.53    0.46
  -3  -2  13    6.25    0.56
   2   2 -13    2.28    0.34
   2   2 -13    3.21    0.37
  -2  -2  13    2.20    0.31
  -2  -2  13    3.00    0.46
  -2  -2  13    2.18    0.35
   1   2 -13    0.38    0.16
   1   2 -13    0.16    0.20
  -1  -2  13    0.06    0.20
   0   2 -13    1.09    0.29
   0   2 -13    1.40    0.26
   0  -2  13    1.57    0.33
  -1   2 -13    4.46    0.54
  -1   2 -13    4.53    0.47
   1  -2  13    4.11    0.53
  -2   2 -13    1.97    0.32
  -2   2 -13    2.13    0.37
   2  -2  13    2.38    0.42
  -3   2 -13   13.31    0.85
  -3   2 -13   13.87    0.82
   3  -2  13   13.04    0.86
   5   1 -13    1.58    0.31
   5   1 -13    1.19    0.29
   5   1 -13    1.65    0.36
  -5  -1  13    1.68    0.33
  -5  -1  13    1.68    0.27
   4   1 -13   35.08    1.24
   4   1 -13   33.10    1.39
   4   1 -13   33.24    1.11
  -4  -1  13   32.88    1.25
  -4  -1  13   35.40    1.30
   3   1 -13   18.66    0.70
   3   1 -13   19.11    0.89
  -3  -1  13   19.28    0.91
  -3  -1  13   19.19    0.94
   2   1 -13   23.07    0.72
   2   1 -13   22.93    1.00
  -2  -1  13   23.74    1.03
  -2  -1  13   24.05    1.06
  -2  -1  13   20.88    1.00
   1   1 -13   63.39    1.91
   1   1 -13   61.20    1.77
  -1  -1  13   60.26    1.90
  -1  -1  13   52.19    2.24
   0   1 -13   57.90    1.86
   0   1 -13   57.35    1.71
   0  -1  13   56.13    1.86
  -1   1 -13   30.87    1.15
  -1   1 -13   31.50    1.28
   1  -1  13   32.52    1.34
  -2   1 -13   35.37    1.40
  -2   1 -13   35.59    1.29
   2  -1  13   35.48    1.43
  -3   1 -13   14.00    0.80
  -3   1 -13   14.09    0.86
   3  -1  13   13.62    0.85
  -4   1 -13    8.22    0.68
  -4   1 -13    9.03    0.70
   4  -1  13   10.13    0.73
   5   0 -13   12.69    0.84
   5   0 -13   12.58    0.73
   5   0 -13   12.14    0.68
  -5   0  13   11.95    0.70
  -5   0  13   13.36    0.75
   4   0 -13    4.45    0.46
   4   0 -13    4.48    0.52
   4   0 -13    5.32    0.45
  -4   0  13    5.51    0.51
  -4   0  13    5.15    0.49
   3   0 -13   37.21    1.34
   3   0 -13   38.09    1.19
  -3   0  13   34.27    1.33
  -3   0  13   40.21    1.42
   2   0 -13   23.43    0.81
   2   0 -13   23.54    1.01
  -2   0  13   24.42    1.05
  -2   0  13   24.45    1.07
   1   0 -13   11.63    0.66
   1   0 -13   11.08    0.71
   1   0 -13   11.34    0.48
  -1   0  13   12.53    0.74
  -1   0  13   12.55    0.76
   0   0 -13   12.51    0.76
   0   0 -13   13.05    0.70
  -1   0 -13    4.15    0.50
  -1   0 -13    3.72    0.43
   1   0  13    4.12    0.54
  -2   0 -13    5.82    0.57
  -2   0 -13    6.09    0.53
  -3   0 -13    0.95    0.25
  -3   0 -13    1.00    0.28
   3   0  13    1.08    0.28
  -4   0 -13    0.86    0.28
  -4   0 -13    0.69    0.26
   4   0  13    1.17    0.30
  -5   0 -13   -0.32    0.22
  -5   0 -13   -0.18    0.21
   5   0  13    0.42    0.44
   5  -1 -13    9.68    0.67
   5  -1 -13   10.05    0.76
   5  -1 -13    8.97    0.63
  -5   1  13    9.00    0.66
  -5   1  13   10.07    0.68
   4  -1 -13    0.05    0.17
   4  -1 -13   -0.18    0.19
   4  -1 -13   -0.26    0.16
  -4   1  13   -0.01    0.17
  -4   1  13    0.20    0.23
   3  -1 -13    2.16    0.34
   3  -1 -13    2.69    0.42
   3  -1 -13    2.18    0.33
  -3   1  13    2.58    0.52
  -3   1  13    3.01    0.43
   2  -1 -13    1.69    0.32
  -2   1  13    1.61    0.32
  -2   1  13    2.14    0.37
   1  -1 -13    0.30    0.22
  -1   1  13    0.71    0.24
  -1   1  13    0.20    0.18
   0  -1 -13   13.54    0.72
   0  -1 -13   13.45    0.79
  -1  -1 -13    4.83    0.59
  -1  -1 -13    4.79    0.53
   1   1  13    4.96    0.53
  -2  -1 -13    5.56    0.52
  -2  -1 -13    5.70    0.61
   2   1  13    5.81    0.56
  -3  -1 -13    7.67    0.61
  -3  -1 -13    7.81    0.64
  -3  -1 -13    7.17    0.42
   3   1  13    8.71    0.67
  -4  -1 -13   12.65    0.82
  -4  -1 -13   12.47    0.58
  -4  -1 -13   13.04    0.79
   4   1  13   12.51    0.81
  -5  -1 -13   38.42    1.48
  -5  -1 -13   35.49    1.19
  -5  -1 -13   38.56    1.49
   5   1  13   40.09    1.52
   4  -2 -13    4.20    0.47
   4  -2 -13    4.54    0.54
   4  -2 -13    4.31    0.48
  -4   2  13    4.15    0.48
   3  -2 -13   35.67    1.34
   3  -2 -13   34.76    1.31
  -3   2  13   34.14    1.33
  -3   2  13   35.79    1.37
   2  -2 -13   27.70    1.14
  -2   2  13   26.73    1.12
  -2   2  13   27.86    1.18
   1  -2 -13   20.33    0.97
  -1   2  13   20.41    1.36
  -1   2  13   19.34    0.97
   0  -2 -13   42.57    1.52
   0  -2 -13   44.87    1.63
   0   2  13   42.23    1.57
  -1  -2 -13   46.30    1.56
  -1  -2 -13   47.79    1.64
   1   2  13   47.86    1.72
  -2  -2 -13   29.90    1.29
  -2  -2 -13   28.29    1.13
   2   2  13   27.94    1.20
  -3  -2 -13   11.60    0.72
  -3  -2 -13   12.38    0.78
   3   2  13   12.91    0.79
  -4  -2 -13   38.33    1.40
  -4  -2 -13   33.89    1.19
  -4  -2 -13   38.91    1.47
   4   2  13   36.20    1.41
  -5  -2 -13   17.36    0.94
  -5  -2 -13   16.77    0.92
  -5  -2 -13   17.06    0.80
   5   2  13   16.63    0.94
   3  -3 -13   24.49    1.09
   3  -3 -13   23.96    1.09
  -3   3  13   26.09    1.15
   2  -3 -13   21.19    1.24
   2  -3 -13   21.33    1.02
  -2   3  13   22.88    1.07
   1  -3 -13   19.06    0.94
  -1   3  13   18.44    0.97
   0  -3 -13   10.04    0.70
   0   3  13   10.45    0.73
  -1  -3 -13   13.76    0.95
  -1  -3 -13   14.89    0.79
   1   3  13   13.56    0.87
  -2  -3 -13    5.12    0.55
  -2  -3 -13    5.88    0.53
   2   3  13    5.53    0.57
  -3  -3 -13    4.33    0.50
  -3  -3 -13    3.86    0.50
   3   3  13    4.18    0.52
  -4  -3 -13    1.66    0.32
  -4  -3 -13    2.88    0.45
   4   3  13    1.42    0.32
  -5  -3 -13    1.28    0.30
  -5  -3 -13    1.42    0.32
   5   3  13    1.28    0.33
   2  -4 -13    0.23    0.21
   2  -4 -13    0.07    0.19
  -2   4  13    0.05    0.21
   1  -4 -13    1.32    0.34
  -1   4  13    1.49    0.30
   0  -4 -13    2.96    0.53
   0   4  13    3.39    0.50
  -1  -4 -13   15.88    0.90
   1   4  13   16.58    0.92
  -2  -4 -13   22.68    1.07
  -2  -4 -13   23.09    1.04
   2   4  13   22.85    1.10
  -3  -4 -13    2.64    0.43
  -3  -4 -13    2.29    0.40
   3   4  13    2.73    0.46
  -4  -4 -13   25.95    1.13
  -4  -4 -13   26.40    1.18
   4   4  13   25.63    1.15
  -5  -4 -13   29.24    1.25
  -5  -4 -13   27.24    1.20
   5   4  13   29.30    1.26
   1  -5 -13    8.71    0.70
   1  -5 -13    8.94    0.58
  -1   5  13    9.45    0.72
   0  -5 -13   11.16    0.79
   0   5  13   11.68    0.80
  -1  -5 -13   24.03    1.14
   1   5  13   24.24    1.17
  -2  -5 -13   17.20    0.90
  -2  -5 -13   17.17    0.95
   2   5  13   16.33    0.94
  -3  -5 -13   15.97    0.88
  -3  -5 -13   16.15    0.92
   3   5  13   18.04    0.96
  -4  -5 -13   19.27    0.96
  -4  -5 -13   20.84    1.04
   4   5  13   21.40    1.24
  -5  -5 -13   15.18    0.88
  -5  -5 -13   14.03    0.83
   5   5  13   13.68    0.86
  -1  -6 -13   11.36    0.84
   1   6  13   13.93    0.90
  -2  -6 -13    1.36    0.34
   2   6  13    1.33    0.34
  -3  -6 -13    3.91    0.55
  -3  -6 -13    4.35    0.50
   3   6  13    3.95    0.57
   3   3 -14    1.76    0.35
  -3  -3  14    2.09    0.39
  -3  -3  14    2.24    0.35
   2   3 -14    3.73    0.41
   2   3 -14    4.14    0.56
  -2  -3  14    3.22    0.48
   1   3 -14    7.38    0.52
   1   3 -14    6.51    0.83
  -1  -3  14    7.09    0.64
   0   3 -14    5.80    0.53
   0   3 -14    3.69    0.56
   0  -3  14    5.49    0.58
  -1   3 -14   21.03    1.11
  -1   3 -14   21.57    0.95
   1  -3  14   21.42    1.11
   4   2 -14   36.96    1.56
   4   2 -14   39.97    1.17
   4   2 -14   40.50    1.43
  -4  -2  14   41.87    1.50
  -4  -2  14   39.58    1.46
   3   2 -14   17.07    0.90
  -3  -2  14   17.79    0.95
  -3  -2  14   19.07    0.96
   2   2 -14   27.14    1.18
  -2  -2  14   27.94    1.20
   1   2 -14   23.27    1.09
   1   2 -14   24.29    0.96
  -1  -2  14   22.86    1.11
   0   2 -14   15.19    0.88
   0   2 -14   15.20    0.90
   0  -2  14   13.87    0.87
  -1   2 -14   12.91    0.73
  -1   2 -14   15.16    0.90
   1  -2  14   11.97    0.83
  -2   2 -14   20.70    1.10
  -2   2 -14   20.54    0.97
   2  -2  14   20.13    1.09
   4   1 -14    0.45    0.19
   4   1 -14    0.51    0.24
   4   1 -14    0.67    0.27
  -4  -1  14    0.88    0.28
  -4  -1  14    0.63    0.22
   3   1 -14    3.80    0.33
   3   1 -14    4.07    0.50
  -3  -1  14    4.62    0.52
  -3  -1  14    5.03    0.55
   2   1 -14    2.48    0.39
  -2  -1  14    3.75    0.51
   1   1 -14    0.73    0.26
   1   1 -14    0.59    0.24
  -1  -1  14    0.66    0.27
   0   1 -14    0.94    0.42
   0   1 -14    1.00    0.26
   0  -1  14    0.50    0.19
  -1   1 -14    4.40    0.56
  -1   1 -14    4.85    0.49
   1  -1  14    4.76    0.57
  -2   1 -14   -0.07    0.24
  -2   1 -14    0.24    0.21
   2  -1  14   -0.13    0.20
  -3   1 -14    3.52    0.54
  -3   1 -14    3.23    0.50
   3  -1  14    5.03    0.58
   4   0 -14    4.06    0.48
   4   0 -14    4.16    0.45
   4   0 -14    4.33    0.53
  -4   0  14    4.92    0.51
   3   0 -14    1.48    0.35
   3   0 -14    1.71    0.28
  -3   0  14    1.24    0.33
   2   0 -14   13.75    0.81
   2   0 -14   13.58    0.59
  -2   0  14   14.36    0.85
   1   0 -14   15.44    0.80
   1   0 -14   16.07    0.88
   1   0 -14   14.26    0.60
  -1   0  14   15.26    0.88
   0   0 -14   23.56    1.09
   0   0 -14   22.16    0.97
   0   0  14   23.88    1.12
  -1   0 -14   26.02    1.07
  -1   0 -14   25.69    1.17
   1   0  14   27.37    1.20
  -2   0 -14   25.37    1.08
  -2   0 -14   27.49    1.21
   2   0  14   23.93    1.17
  -3   0 -14   16.85    0.91
  -3   0 -14   17.22    0.97
   3   0  14   16.83    0.96
  -4   0 -14   28.10    1.26
  -4   0 -14   24.29    1.14
   4   0  14   25.79    1.23
   4  -1 -14   12.80    0.75
   4  -1 -14    9.66    0.92
   4  -1 -14   12.81    0.83
  -4   1  14   12.42    0.76
  -4   1  14   12.03    0.76
   3  -1 -14   38.95    1.29
   3  -1 -14   39.39    1.44
   3  -1 -14   38.63    1.47
  -3   1  14   39.45    1.47
  -3   1  14   35.19    1.62
   2  -1 -14   34.45    1.13
   2  -1 -14   34.27    1.33
  -2   1  14   34.12    1.37
   1  -1 -14   32.09    1.29
  -1   1  14   31.35    1.31
   0  -1 -14   12.50    0.72
   0  -1 -14   12.36    0.79
   0   1  14   11.96    0.78
  -1  -1 -14    6.57    0.55
  -1  -1 -14    6.56    0.62
   1   1  14    7.57    0.63
  -2  -1 -14   26.29    1.20
  -2  -1 -14   27.06    1.12
   2   1  14   27.29    1.22
  -3  -1 -14    7.51    0.62
  -3  -1 -14    6.80    0.63
  -3  -1 -14    6.16    0.42
   3   1  14    6.72    0.63
  -4  -1 -14    3.12    0.37
  -4  -1 -14    2.39    0.41
  -4  -1 -14    3.31    0.50
   4   1  14    4.10    0.55
   3  -2 -14   11.58    0.75
   3  -2 -14    7.68    0.88
   3  -2 -14   10.36    0.73
  -3   2  14    9.99    0.70
   2  -2 -14    0.57    0.26
  -2   2  14    0.68    0.23
   1  -2 -14   -0.42    0.20
  -1   2  14   -0.24    0.19
   0  -2 -14   -0.05    0.32
   0  -2 -14   -0.04    0.17
   0   2  14   -0.12    0.18
  -1  -2 -14    2.28    0.43
  -1  -2 -14    1.28    0.29
   1   2  14    1.70    0.38
  -2  -2 -14    1.48    0.30
  -2  -2 -14    1.28    0.34
   2   2  14    1.66    0.36
  -3  -2 -14    0.05    0.20
  -3  -2 -14   -0.06    0.22
   3   2  14    0.07    0.22
  -4  -2 -14   13.68    0.83
  -4  -2 -14   14.94    0.88
  -4  -2 -14   13.12    0.69
   4   2  14   13.98    0.87
   2  -3 -14   12.23    0.80
   2  -3 -14   10.92    0.73
  -2   3  14   12.89    0.81
  -1   3  14   25.35    1.19
   0  -3 -14   17.43    0.93
   0   3  14   17.16    0.95
  -1  -3 -14   19.52    1.02
  -1  -3 -14   19.70    0.98
   1   3  14   20.71    1.05
  -2  -3 -14   42.50    1.54
  -2  -3 -14   42.75    1.61
   2   3  14   45.47    1.66
  -3  -3 -14   18.21    0.93
  -3  -3 -14   17.70    0.98
   3   3  14   17.09    0.97
  -4  -3 -14   21.36    1.07
  -4  -3 -14   21.36    1.04
   4   3  14   20.68    1.07
   1  -4 -14    5.12    0.57
  -1   4  14    6.78    0.64
   0  -4 -14   11.93    0.80
   0   4  14   12.14    0.81
  -1  -4 -14   12.32    0.83
   1   4  14   11.64    0.83
  -2  -4 -14    5.74    0.57
  -2  -4 -14    6.27    0.63
   2   4  14    6.01    0.64
  -3  -4 -14   16.69    0.94
  -3  -4 -14   15.94    0.88
   3   4  14   18.13    1.00
  -4  -4 -14    2.45    0.41
  -4  -4 -14    2.65    0.39
   4   4  14    3.76    0.55
  -1  -5 -14   -0.20    0.23
   1   5  14   -0.43    0.20
  -2  -5 -14    3.57    0.52
   2   5  14    2.96    0.49
  -3  -5 -14    0.30    0.26
  -3  -5 -14    0.65    0.25
   3   5  14    1.00    0.30
   2   2 -15    3.19    0.48
  -2  -2  15    3.88    0.52
   1   2 -15    4.89    0.47
   1   2 -15    4.07    0.55
  -1  -2  15    3.40    0.51
   0   2 -15   10.29    0.77
   0   2 -15   10.73    0.66
   0  -2  15   11.50    0.79
   2   1 -15   21.16    1.05
  -2  -1  15   20.45    1.05
   1   1 -15   13.63    0.85
   1   1 -15   13.76    0.76
  -1  -1  15   13.53    0.86
   0   1 -15   10.18    0.66
   0   1 -15   10.66    0.78
   0  -1  15   10.99    0.77
  -1   1 -15   18.63    0.90
  -1   1 -15   16.62    0.98
   2   0 -15    4.31    0.56
   2   0 -15    4.49    0.35
  -2   0  15    5.23    0.57
   1   0 -15    5.03    0.69
   1   0 -15    5.01    0.38
   1   0 -15    5.54    0.52
  -1   0  15    5.39    0.58
   0   0 -15    0.29    0.22
   0   0 -15    0.57    0.28
   0   0  15    0.20    0.21
  -1   0 -15    0.18    0.18
  -1   0 -15    0.07    0.18
   1   0  15    0.25    0.27
  -2   0 -15    8.93    0.76
  -2   0 -15    9.11    0.68
   2   0  15   10.48    0.80
   2  -1 -15    3.18    0.39
   2  -1 -15    4.16    0.57
   1  -1 -15    5.31    0.61
  -1   1  15    4.79    0.58
   0  -1 -15    1.95    0.39
   0  -1 -15    1.48    0.30
   0   1  15    1.85    0.36
  -1  -1 -15   10.88    0.71
  -1  -1 -15   10.74    0.78
   1   1  15   11.20    0.80
  -2  -1 -15   17.60    0.90
  -2  -1 -15   16.26    0.99
  -2  -1 -15   15.50    0.64
   2   1  15   18.73    1.02
   1  -2 -15   19.23    1.02
  -1   2  15   19.98    1.05
   0  -2 -15   11.76    0.76
   0  -2 -15   12.65    0.83
   0   2  15   12.41    0.82
  -1  -2 -15   13.19    0.79
  -1  -2 -15   13.48    0.87
   1   2  15   13.45    0.89
  -2  -2 -15   45.75    1.72
  -2  -2 -15   45.61    1.61
   2   2  15   45.63    1.73
  -3  -2 -15   10.96    0.75
  -3  -2 -15   10.96    0.81
   0  -3 -15    1.62    0.35
   0   3  15    2.16    0.39
  -1  -3 -15    0.16    0.26
  -1  -3 -15    0.53    0.25
   1   3  15    0.23    0.21
  -2  -3 -15   -0.38    0.22
  -2  -3 -15    0.20    0.20
   2   3  15   -0.10    0.21
   0   0   0    0.00    0.00
;
loop_
_space_group_symop_operation_xyz
'x, y, z'
'-x, -y, -z'
loop_
_atom_site_label
_atom_site_type_symbol
_atom_site_fract_x
_atom_site_fract_y
_atom_site_fract_z
_atom_site_U_iso_or_equiv
_atom_site_adp_type
_atom_site_occupancy
_atom_site_site_symmetry_order
_atom_site_calc_flag
_atom_site_refinement_flags_posn
_atom_site_refinement_flags_adp
_atom_site_refinement_flags_occupancy
_atom_site_disorder_assembly
_atom_site_disorder_group
Cd1 Cd 0.47737(2) 0.33223(2) 0.22026(2) 0.02556(4) Uani 1 1 d . . . . .
O1 O 0.74684(17) 0.3045(2) 0.12440(10) 0.0375(3) Uani 1 1 d . . . . .
O2 O 1.04804(17) 0.21930(19) 0.14435(10) 0.0369(3) Uani 1 1 d . . . . .
O3 O 1.33967(18) 0.1366(2) 0.35142(13) 0.0508(4) Uani 1 1 d . . . . .
O4 O 1.18734(17) 0.42134(18) 0.29185(11) 0.0374(3) Uani 1 1 d . . . . .
O5 O 0.54645(18) 0.05893(17) 0.12996(10) 0.0355(3) Uani 1 1 d . . . . .
O6 O 0.4351(2) 0.6349(2) 0.22289(16) 0.0535(4) Uani 1 1 d . . . . .
N1 N 0.71370(18) 0.2643(2) 0.34752(11) 0.0269(3) Uani 1 1 d . . . . .
N3 N 0.29412(19) 0.38984(19) 0.05065(11) 0.0279(3) Uani 1 1 d . . . . .
H3A H 0.1763 0.4189 0.0669 0.034 Uiso 1 1 calc R U . . .
H3B H 0.3049 0.4836 0.0098 0.034 Uiso 1 1 calc R U . . .
N2 N 0.35370(18) 0.23267(18) -0.00989(11) 0.0258(3) Uani 1 1 d . . . . .
H2 H 0.3116 0.2367 -0.0761 0.031 Uiso 1 1 calc R U . . .
C1 C 0.8743(2) 0.2640(2) 0.30759(12) 0.0224(3) Uani 1 1 d . . . . .
C2 C 1.0171(2) 0.2588(2) 0.37760(13) 0.0252(3) Uani 1 1 d . . . . .
C3 C 0.9906(3) 0.2525(3) 0.49158(15) 0.0390(4) Uani 1 1 d . . . . .
H3 H 1.0833 0.2495 0.5405 0.047 Uiso 1 1 calc R U . . .
C4 C 0.8267(3) 0.2507(3) 0.53152(15) 0.0460(5) Uani 1 1 d . . . . .
H4 H 0.8078 0.2454 0.6075 0.055 Uiso 1 1 calc R U . . .
C5 C 0.6910(2) 0.2570(3) 0.45720(14) 0.0375(4) Uani 1 1 d . . . . .
H5 H 0.5801 0.2562 0.4842 0.045 Uiso 1 1 calc R U . . .
C6 C 0.8920(2) 0.2636(2) 0.18233(13) 0.0249(3) Uani 1 1 d . . . . .
C7 C 1.1944(2) 0.2694(2) 0.33610(13) 0.0294(3) Uani 1 1 d . . . . .
C8 C 0.4749(2) 0.0795(2) 0.03664(12) 0.0247(3) Uani 1 1 d . . . . .
O7 O 0.1648(2) 0.8640(2) 0.08232(13) 0.0457(3) Uani 1 1 d . . . . .
O8 O 0.3776(2) 0.2109(2) 0.65727(14) 0.0489(4) Uani 1 1 d . . . . .
O9 O 0.0870(2) 0.2870(2) 0.81199(15) 0.0555(4) Uani 1 1 d . . . . .
H9A H 0.0144 0.3986 0.8050 0.067 Uiso 1 1 d R U . . .
H9B H 0.032(4) 0.234(4) 0.835(2) 0.067 Uiso 1 1 d . U . . .
H8B H 0.453(4) 0.109(4) 0.653(2) 0.067 Uiso 1 1 d . U . . .
H8A H 0.310(4) 0.203(4) 0.698(2) 0.067 Uiso 1 1 d . U . . .
H6A H 0.492(4) 0.677(4) 0.254(2) 0.067 Uiso 1 1 d . U . . .
H6B H 0.365(4) 0.709(4) 0.182(2) 0.067 Uiso 1 1 d . U . . .
H7A H 0.134(4) 0.972(4) 0.089(2) 0.067 Uiso 1 1 d . U . . .
H7B H 0.176(4) 0.842(4) 0.021(2) 0.067 Uiso 1 1 d . U . . .
loop_
_atom_site_aniso_label
_atom_site_aniso_U_11
_atom_site_aniso_U_22
_atom_site_aniso_U_33
_atom_site_aniso_U_23
_atom_site_aniso_U_13
_atom_site_aniso_U_12
Cd1 0.01855(6) 0.03516(7) 0.02558(7) -0.00465(5) -0.00001(4) -0.01256(5)
O1 0.0274(6) 0.0672(9) 0.0221(6) -0.0030(6) 0.0005(5) -0.0226(6)
O2 0.0278(6) 0.0581(8) 0.0322(6) -0.0154(6) 0.0122(5) -0.0224(6)
O3 0.0219(6) 0.0582(9) 0.0624(10) -0.0030(7) 0.0016(6) -0.0037(6)
O4 0.0317(6) 0.0457(7) 0.0427(7) -0.0068(6) 0.0087(5) -0.0228(6)
O5 0.0417(7) 0.0339(6) 0.0259(6) -0.0041(5) -0.0084(5) -0.0077(5)
O6 0.0576(10) 0.0380(8) 0.0699(11) 0.0096(7) -0.0246(8) -0.0257(7)
N1 0.0205(6) 0.0404(8) 0.0238(6) -0.0026(6) 0.0024(5) -0.0157(6)
N3 0.0252(7) 0.0287(7) 0.0293(7) -0.0038(6) 0.0004(5) -0.0091(5)
N2 0.0265(7) 0.0311(7) 0.0204(6) -0.0034(5) -0.0005(5) -0.0110(5)
C1 0.0186(7) 0.0272(7) 0.0226(7) -0.0033(6) 0.0028(5) -0.0095(6)
C2 0.0191(7) 0.0314(8) 0.0262(8) -0.0025(6) 0.0004(6) -0.0106(6)
C3 0.0314(9) 0.0654(13) 0.0251(8) -0.0031(8) -0.0044(7) -0.0236(9)
C4 0.0416(11) 0.0829(16) 0.0213(8) -0.0038(9) 0.0040(7) -0.0323(11)
C5 0.0294(9) 0.0630(12) 0.0261(8) -0.0030(8) 0.0070(7) -0.0242(8)
C6 0.0247(7) 0.0318(8) 0.0235(7) -0.0064(6) 0.0037(6) -0.0159(6)
C7 0.0199(7) 0.0448(10) 0.0269(8) -0.0095(7) 0.0015(6) -0.0148(7)
C8 0.0236(7) 0.0303(8) 0.0225(7) -0.0020(6) 0.0031(6) -0.0128(6)
O7 0.0516(9) 0.0425(8) 0.0366(7) -0.0060(7) -0.0037(6) -0.0096(7)
O8 0.0511(10) 0.0440(8) 0.0474(9) -0.0009(7) -0.0038(7) -0.0132(7)
O9 0.0383(8) 0.0575(10) 0.0687(11) 0.0071(8) -0.0106(7) -0.0175(7)
loop_
_atom_type_symbol
_atom_type_description
_atom_type_scat_dispersion_real
_atom_type_scat_dispersion_imag
_atom_type_scat_source
C C 0.0033 0.0016 'International Tables Vol C Tables 4.2.6.8 and 6.1.1.4'
H H 0.0000 0.0000 'International Tables Vol C Tables 4.2.6.8 and 6.1.1.4'
Cd Cd -0.8075 1.2024 'International Tables Vol C Tables 4.2.6.8 and 6.1.1.4'
N N 0.0061 0.0033 'International Tables Vol C Tables 4.2.6.8 and 6.1.1.4'
O O 0.0106 0.0060 'International Tables Vol C Tables 4.2.6.8 and 6.1.1.4'
loop_
_geom_angle_atom_site_label_1
_geom_angle_atom_site_label_2
_geom_angle_atom_site_label_3
_geom_angle
_geom_angle_site_symmetry_1
_geom_angle_site_symmetry_3
O6 Cd1 N1 88.75(6) . .
O6 Cd1 O4 84.45(6) . 1_455
N1 Cd1 O4 115.68(5) . 1_455
O6 Cd1 O1 85.31(6) . .
N1 Cd1 O1 71.58(4) . .
O4 Cd1 O1 167.26(5) 1_455 .
O6 Cd1 O5 152.60(6) . .
N1 Cd1 O5 103.90(5) . .
O4 Cd1 O5 110.55(5) 1_455 .
O1 Cd1 O5 76.12(5) . .
O6 Cd1 N3 91.77(5) . .
N1 Cd1 N3 164.50(5) . .
O4 Cd1 N3 79.77(5) 1_455 .
O1 Cd1 N3 93.02(4) . .
O5 Cd1 N3 69.64(4) . .
O6 Cd1 O3 128.83(6) . 1_455
N1 Cd1 O3 88.12(5) . 1_455
O4 Cd1 O3 52.05(4) 1_455 1_455
O1 Cd1 O3 140.55(5) . 1_455
O5 Cd1 O3 76.56(5) . 1_455
N3 Cd1 O3 103.48(5) . 1_455
C6 O1 Cd1 116.73(10) . .
C7 O3 Cd1 84.41(11) . 1_655
C7 O4 Cd1 99.27(10) . 1_655
C8 O5 Cd1 114.61(10) . .
Cd1 O6 H6A 128(2) . .
Cd1 O6 H6B 121(2) . .
H6A O6 H6B 110(3) . .
C5 N1 C1 119.39(14) . .
C5 N1 Cd1 123.39(11) . .
C1 N1 Cd1 116.18(10) . .
N2 N3 Cd1 109.83(9) . .
N2 N3 H3A 109.7 . .
Cd1 N3 H3A 109.7 . .
N2 N3 H3B 109.7 . .
Cd1 N3 H3B 109.7 . .
H3A N3 H3B 108.2 . .
C8 N2 N3 118.88(13) . .
C8 N2 H2 120.6 . .
N3 N2 H2 120.6 . .
N1 C1 C2 121.67(14) . .
N1 C1 C6 116.03(13) . .
C2 C1 C6 122.28(13) . .
C1 C2 C3 118.17(14) . .
C1 C2 C7 123.28(14) . .
C3 C2 C7 118.47(14) . .
C4 C3 C2 119.67(16) . .
C4 C3 H3 120.2 . .
C2 C3 H3 120.2 . .
C3 C4 C5 118.97(16) . .
C3 C4 H4 120.5 . .
C5 C4 H4 120.5 . .
N1 C5 C4 122.12(16) . .
N1 C5 H5 118.9 . .
C4 C5 H5 118.9 . .
O2 C6 O1 124.49(15) . .
O2 C6 C1 117.81(14) . .
O1 C6 C1 117.68(13) . .
O3 C7 O4 122.65(16) . .
O3 C7 C2 120.30(16) . .
O4 C7 C2 116.92(15) . .
O5 C8 N2 126.05(15) . .
O5 C8 C8 120.41(18) . 2_655
N2 C8 C8 113.54(17) . 2_655
H7A O7 H7B 112(3) . .
H8B O8 H8A 106(3) . .
H9A O9 H9B 106.4 . .
loop_
_geom_bond_atom_site_label_1
_geom_bond_atom_site_label_2
_geom_bond_distance
_geom_bond_site_symmetry_2
Cd1 O6 2.2883(15) .
Cd1 N1 2.2909(13) .
Cd1 O4 2.3023(12) 1_455
Cd1 O1 2.3516(12) .
Cd1 O5 2.3653(12) .
Cd1 N3 2.4234(14) .
Cd1 O3 2.6333(16) 1_455
O1 C6 1.2605(19) .
O2 C6 1.2377(19) .
O3 C7 1.232(2) .
O3 Cd1 2.6334(16) 1_655
O4 C7 1.259(2) .
O4 Cd1 2.3023(12) 1_655
O5 C8 1.2342(19) .
O6 H6A 0.76(3) .
O6 H6B 0.78(3) .
N1 C5 1.337(2) .
N1 C1 1.3461(19) .
N3 N2 1.4097(19) .
N3 H3A 0.8900 .
N3 H3B 0.8900 .
N2 C8 1.317(2) .
N2 H2 0.8600 .
C1 C2 1.392(2) .
C1 C6 1.520(2) .
C2 C3 1.392(2) .
C2 C7 1.505(2) .
C3 C4 1.376(3) .
C3 H3 0.9300 .
C4 C5 1.379(3) .
C4 H4 0.9300 .
C5 H5 0.9300 .
C8 C8 1.517(3) 2_655
O7 H7A 0.80(3) .
O7 H7B 0.77(3) .
O8 H8B 0.81(3) .
O8 H8A 0.74(3) .
O9 H9A 0.8516 .
O9 H9B 0.75(3) .
loop_
_geom_hbond_atom_site_label_D
_geom_hbond_atom_site_label_H
_geom_hbond_atom_site_label_A
_geom_hbond_distance_DH
_geom_hbond_distance_HA
_geom_hbond_distance_DA
_geom_hbond_angle_DHA
_geom_hbond_site_symmetry_A
O7 H7B O1 0.77(3) 2.13(3) 2.874(2) 162(3) 2_665
O7 H7A O2 0.80(3) 1.98(3) 2.765(2) 165(3) 1_465
O6 H6B O7 0.78(3) 1.95(3) 2.718(2) 169(3) .
O6 H6A O8 0.76(3) 1.94(3) 2.705(2) 176(3) 2_666
O8 H8A O9 0.74(3) 2.15(3) 2.857(3) 159(3) .
O8 H8B O3 0.81(3) 2.02(3) 2.825(2) 174(3) 2_756
O9 H9B O7 0.75(3) 2.18(3) 2.908(2) 167(3) 2_566
O9 H9A O4 0.85 2.00 2.727(2) 142.7 2_666
N2 H2 O9 0.86 2.12 2.902(2) 150.3 1_554
N3 H3B O1 0.89 2.17 3.0169(19) 158.9 2_665
N3 H3A O2 0.89 2.31 2.9163(18) 125.6 1_455
O7 H7B O1 0.77(3) 2.13(3) 2.874(2) 162(3) 2_665
O7 H7A O2 0.80(3) 1.98(3) 2.765(2) 165(3) 1_465
O6 H6B O7 0.78(3) 1.95(3) 2.718(2) 169(3) .
O6 H6A O8 0.76(3) 1.94(3) 2.705(2) 176(3) 2_666
O8 H8A O9 0.74(3) 2.15(3) 2.857(3) 159(3) .
O8 H8B O3 0.81(3) 2.02(3) 2.825(2) 174(3) 2_756
O9 H9B O7 0.75(3) 2.18(3) 2.908(2) 167(3) 2_566
O9 H9A O4 0.85 2.00 2.727(2) 142.7 2_666
N2 H2 O9 0.86 2.12 2.902(2) 150.3 1_554
N3 H3B O1 0.89 2.17 3.0169(19) 158.9 2_665
N3 H3A O2 0.89 2.31 2.9163(18) 125.6 1_455
N3 H3A O2 0.89 2.31 2.9163(18) 125.6 1_455
N3 H3B O1 0.89 2.17 3.0169(19) 158.9 2_665
N2 H2 O9 0.86 2.12 2.902(2) 150.3 1_554
O9 H9A O4 0.85 2.00 2.727(2) 142.7 2_666
O9 H9B O7 0.75(3) 2.18(3) 2.908(2) 167(3) 2_566
O8 H8B O3 0.81(3) 2.02(3) 2.825(2) 174(3) 2_756
O8 H8A O9 0.74(3) 2.15(3) 2.857(3) 159(3) .
O6 H6A O8 0.76(3) 1.94(3) 2.705(2) 176(3) 2_666
O6 H6B O7 0.78(3) 1.95(3) 2.718(2) 169(3) .
O7 H7A O2 0.80(3) 1.98(3) 2.765(2) 165(3) 1_465
O7 H7B O1 0.77(3) 2.13(3) 2.874(2) 162(3) 2_665
N3 H3A O2 0.89 2.31 2.9163(18) 125.6 1_455
N3 H3B O1 0.89 2.17 3.0169(19) 158.9 2_665
N2 H2 O9 0.86 2.12 2.902(2) 150.3 1_554
O9 H9A O4 0.85 2.00 2.727(2) 142.7 2_666
O9 H9B O7 0.75(3) 2.18(3) 2.908(2) 167(3) 2_566
O8 H8B O3 0.81(3) 2.02(3) 2.825(2) 174(3) 2_756
O8 H8A O9 0.74(3) 2.15(3) 2.857(3) 159(3) .
O6 H6A O8 0.76(3) 1.94(3) 2.705(2) 176(3) 2_666
O6 H6B O7 0.78(3) 1.95(3) 2.718(2) 169(3) .
O7 H7A O2 0.80(3) 1.98(3) 2.765(2) 165(3) 1_465
O7 H7B O1 0.77(3) 2.13(3) 2.874(2) 162(3) 2_665
loop_
_geom_torsion_atom_site_label_1
_geom_torsion_atom_site_label_2
_geom_torsion_atom_site_label_3
_geom_torsion_atom_site_label_4
_geom_torsion
_geom_torsion_site_symmetry_1
_geom_torsion_site_symmetry_2
_geom_torsion_site_symmetry_3
_geom_torsion_site_symmetry_4
Cd1 N3 N2 C8 8.31(16) . . . .
C5 N1 C1 C2 -0.9(2) . . . .
Cd1 N1 C1 C2 167.82(12) . . . .
C5 N1 C1 C6 177.28(16) . . . .
Cd1 N1 C1 C6 -13.99(18) . . . .
N1 C1 C2 C3 0.5(2) . . . .
C6 C1 C2 C3 -177.58(16) . . . .
N1 C1 C2 C7 -176.31(15) . . . .
C6 C1 C2 C7 5.6(2) . . . .
C1 C2 C3 C4 0.3(3) . . . .
C7 C2 C3 C4 177.22(19) . . . .
C2 C3 C4 C5 -0.6(3) . . . .
C1 N1 C5 C4 0.6(3) . . . .
Cd1 N1 C5 C4 -167.31(17) . . . .
C3 C4 C5 N1 0.2(3) . . . .
Cd1 O1 C6 O2 169.49(13) . . . .
Cd1 O1 C6 C1 -8.80(19) . . . .
N1 C1 C6 O2 -162.90(15) . . . .
C2 C1 C6 O2 15.3(2) . . . .
N1 C1 C6 O1 15.5(2) . . . .
C2 C1 C6 O1 -166.32(16) . . . .
Cd1 O3 C7 O4 -12.22(17) 1_655 . . .
Cd1 O3 C7 C2 172.01(14) 1_655 . . .
Cd1 O4 C7 O3 14.13(19) 1_655 . . .
Cd1 O4 C7 C2 -169.97(12) 1_655 . . .
C1 C2 C7 O3 -113.20(19) . . . .
C3 C2 C7 O3 70.0(2) . . . .
C1 C2 C7 O4 70.8(2) . . . .
C3 C2 C7 O4 -106.02(19) . . . .
Cd1 O5 C8 N2 -7.0(2) . . . .
Cd1 O5 C8 C8 172.55(14) . . . 2_655
N3 N2 C8 O5 -1.3(2) . . . .
N3 N2 C8 C8 179.17(15) . . . 2_655
