#------------------------------------------------------------------------------
#$Date: 2022-05-17 12:24:48 +0300 (Tue, 17 May 2022) $
#$Revision: 275488 $
#$URL: file:///home/coder/svn-repositories/cod/cif/8/10/52/8105285.cif $
#------------------------------------------------------------------------------
#
# This file is available in the Crystallography Open Database (COD),
# http://www.crystallography.net/
#
# All data on this site have been placed in the public domain by the
# contributors.
#
data_8105285
loop_
_publ_author_name
'Chai, Chun-Xia'
'Peng, Peng'
'Cai, Bin'
_publ_section_title
;
 The crystal structure of 4,4&#x2032;-bipyridinium
 bis(3-carboxy-2-nitrobenzoate) tetrahydrate, C13H13N2O8
;
_journal_issue                   4
_journal_name_full
'Zeitschrift f\"ur Kristallographie - New Crystal Structures'
_journal_page_first              779
_journal_page_last               781
_journal_paper_doi               10.1515/ncrs-2020-0004
_journal_volume                  235
_journal_year                    2020
_chemical_formula_moiety         'C8 H4 N O6, 0.5(C10 H10 N2), 2(H2 O)'
_chemical_formula_sum            'C13 H13 N2 O8'
_chemical_formula_weight         325.26
_space_group_crystal_system      triclinic
_space_group_IT_number           2
_space_group_name_Hall           '-P 1'
_space_group_name_H-M_alt        'P -1'
_symmetry_Int_Tables_number      2
_cell_angle_alpha                66.950(3)
_cell_angle_beta                 71.558(3)
_cell_angle_gamma                77.203(4)
_cell_formula_units_Z            2
_cell_length_a                   7.8590(6)
_cell_length_b                   9.3108(8)
_cell_length_c                   11.0816(8)
_cell_measurement_reflns_used    5413
_cell_measurement_temperature    149(2)
_cell_measurement_theta_max      26.337
_cell_measurement_theta_min      2.393
_cell_volume                     703.38(10)
_computing_cell_refinement       'SAINT v8.37A (Bruker, 2015) [1]'
_computing_data_reduction        'SAINT v8.37A (Bruker, 2015) [1]'
_computing_molecular_graphics    'Olex2 (Dolomanov et al., 2009) [3]'
_computing_publication_material  'Olex2 (Dolomanov et al., 2009) [3]'
_computing_structure_refinement  'olex2.refine (Bourhis et al., 2015) [4]'
_computing_structure_solution    'ShelXT (Sheldrick, 2015) [2]'
_diffrn_ambient_temperature      149.44
_diffrn_measured_fraction_theta_full 0.9976
_diffrn_measured_fraction_theta_max 0.9976
_diffrn_measurement_device       'Bruker APEX-II diffractometer'
_diffrn_measurement_device_type  'Bruker APEX-II CCD'
_diffrn_measurement_method       '\f and \w scans'
_diffrn_radiation_type           'Mo K\a'
_diffrn_radiation_wavelength     0.71073
_diffrn_reflns_av_R_equivalents  0.0398
_diffrn_reflns_av_unetI/netI     0.0299
_diffrn_reflns_limit_h_max       9
_diffrn_reflns_limit_h_min       -9
_diffrn_reflns_limit_k_max       11
_diffrn_reflns_limit_k_min       -11
_diffrn_reflns_limit_l_max       13
_diffrn_reflns_limit_l_min       -13
_diffrn_reflns_number            14035
_diffrn_reflns_theta_full        25.1855
_diffrn_reflns_theta_max         25.19
_diffrn_reflns_theta_min         2.07
_exptl_absorpt_coefficient_mu    0.130
_exptl_absorpt_correction_T_max  0.7454
_exptl_absorpt_correction_T_min  0.6945
_exptl_absorpt_correction_type   multi-scan
_exptl_absorpt_process_details
;
SADABS-2016/2 (Bruker,2016/2) was used for absorption correction.
wR2(int) was 0.0677 before and 0.0518 after correction.
The Ratio of minimum to maximum transmission is 0.9317.
The \l/2 correction factor is Not present.
;
_exptl_crystal_colour            colorless
_exptl_crystal_density_diffrn    1.5356
_exptl_crystal_description       needle
_exptl_crystal_F_000             338.2484
_exptl_crystal_size_max          0.25
_exptl_crystal_size_mid          0.15
_exptl_crystal_size_min          0.1
_refine_diff_density_max         0.2750
_refine_diff_density_min         -0.3218
_refine_diff_density_rms         0.0606
_refine_ls_d_res_high            0.8351
_refine_ls_d_res_low             9.8574
_refine_ls_goodness_of_fit_ref   1.0544
_refine_ls_hydrogen_treatment    mixed
_refine_ls_matrix_type           full
_refine_ls_number_constraints    23
_refine_ls_number_parameters     209
_refine_ls_number_reflns         2535
_refine_ls_number_restraints     0
_refine_ls_restrained_S_all      1.0544
_refine_ls_R_factor_all          0.0520
_refine_ls_R_factor_gt           0.0389
_refine_ls_shift/su_max          0.0000
_refine_ls_shift/su_mean         0.0000
_refine_ls_structure_factor_coef Fsqd
_refine_ls_weighting_details
'w=1/[\s^2^(Fo^2^)+(0.0555P)^2^+0.2935P] where P=(Fo^2^+2Fc^2^)/3'
_refine_ls_weighting_scheme      calc
_refine_ls_wR_factor_gt          0.0980
_refine_ls_wR_factor_ref         0.1075
_reflns_Friedel_coverage         0.0
_reflns_limit_h_max              9
_reflns_limit_h_min              -8
_reflns_limit_k_max              11
_reflns_limit_k_min              -10
_reflns_limit_l_max              13
_reflns_limit_l_min              0
_reflns_number_gt                2059
_reflns_number_total             2535
_reflns_threshold_expression     I>=2u(I)
_iucr_refine_instructions_details
;
TITL 1 in P-1
CELL 0.71073 7.859 9.3108 11.0816 66.95 71.558 77.203
ZERR 2 0.0006 0.0008 0.0008 0.003 0.003 0.004
LATT 1
SFAC C H N O
UNIT 26 26 4 16

L.S. 15
PLAN  20
SIZE 0.25 0.15 0.1
TEMP -123.71
ACTA 
BOND $H
FMAP 2
AFIX 
OMIT 0 50.4
WGHT 0.055519 0.29347
FVAR 0.446123
REM <olex2.extras>
REM <HklSrc "%.\\1.hkl">
REM </olex2.extras>

C1    1     0.25897  0.73315  0.13143  11.00000  0.02717  0.02027  0.02269 =
 -0.00504 -0.00528 -0.00564 
C2    1     0.11919  0.62586  0.22712  11.00000  0.02201  0.01951  0.01981 =
 -0.00544 -0.00557 -0.00413 
C3    1    -0.06297  0.67994  0.24016  11.00000  0.02457  0.01763  0.02562 =
 -0.00342 -0.01023 -0.00015 
AFIX 43
H3    2    -0.09780  0.78348  0.18540  11.00000 -1.20000 
AFIX 0
C4    1    -0.19415  0.58534  0.33159  11.00000  0.01796  0.02432  0.03010 =
 -0.00666 -0.00699  0.00070 
AFIX 43
H4    2    -0.31822  0.62356  0.33907  11.00000 -1.20000 
AFIX 0
C5    1    -0.14425  0.43434  0.41248  11.00000  0.01886  0.02058  0.02361 =
 -0.00489 -0.00398 -0.00435 
AFIX 43
H5    2    -0.23506  0.37032  0.47605  11.00000 -1.20000 
AFIX 0
C6    1     0.03673  0.37510  0.40201  11.00000  0.01932  0.01826  0.01861 =
 -0.00640 -0.00552 -0.00168 
C7    1     0.16592  0.47334  0.30822  11.00000  0.01721  0.01965  0.01980 =
 -0.00782 -0.00589 -0.00104 
C8    1     0.08403  0.20928  0.49207  11.00000  0.02230  0.01743  0.02547 =
 -0.00648 -0.00859 -0.00195 

C9    1    -0.00057  0.58106  0.94973  11.00000  0.01964  0.01855  0.01834 =
 -0.00628 -0.00415 -0.00408 
C10   1    -0.16028  0.67865  0.93760  11.00000  0.01855  0.02440  0.02524 =
 -0.00506 -0.00064 -0.00275 
AFIX 43
H10   2    -0.27231  0.64369  0.99619  11.00000 -1.20000 
AFIX 0
C11   1    -0.15542  0.82586  0.84055  11.00000  0.02566  0.02274  0.03107 =
 -0.00660 -0.00661  0.00285 
AFIX 43
H11   2    -0.26542  0.89170  0.83241  11.00000 -1.20000 
AFIX 0
C12   1     0.15394  0.78967  0.76853  11.00000  0.02582  0.02681  0.03820 =
 0.00183 -0.00157 -0.00841 
AFIX 43
H12   2     0.26383  0.82952  0.71017  11.00000 -1.20000 
AFIX 0
C13   1     0.15842  0.64028  0.86300  11.00000  0.02030  0.02676  0.03996 =
 0.00363 -0.00332 -0.00474 
AFIX 43
H13   2     0.27077  0.57760  0.86876  11.00000 -1.20000 
AFIX 0

N1    3     0.35924  0.41137  0.29123  11.00000  0.01848  0.02081  0.02671 =
 -0.00509 -0.00426 -0.00353 

N2    3    -0.00122  0.87890  0.75764  11.00000  0.03390  0.01638  0.02431 =
 -0.00065 -0.00725 -0.00527 
AFIX 43
H2    2    -0.00198  0.97335  0.69541  11.00000 -1.20000 
AFIX 0

O1    4     0.18947  0.86345  0.05184  11.00000  0.03316  0.02619  0.03674 =
 0.00686 -0.01013 -0.00989 
AFIX 147
H1    2     0.27260  0.91720 -0.00376  11.00000 -1.50000 
AFIX 0
O2    4     0.41792  0.70310  0.12970  11.00000  0.02476  0.02987  0.03684 =
 -0.00021 -0.00568 -0.00964 
O3    4    -0.04938  0.14733  0.58489  11.00000  0.02796  0.02287  0.03612 =
 0.00356 -0.00345 -0.00399 
O4    4     0.24093  0.14612  0.47314  11.00000  0.02531  0.02263  0.04193 =
 -0.00511 -0.01012  0.00308 
O5    4     0.43726  0.41781  0.36757  11.00000  0.02269  0.03730  0.03368 =
 -0.00826 -0.01243 -0.00421 
O6    4     0.42763  0.35738  0.20058  11.00000  0.02234  0.04365  0.04414 =
 -0.02753 -0.00025 -0.00088 

AFIX 6
O2W   4     0.41799  0.05078  0.87492  11.00000  0.04195  0.03017  0.02746 =
 -0.00184 -0.00690 -0.01638 
H2Wa  2     0.45665  0.12786  0.88074  11.00000 -1.50000 
H2Wb  2     0.44643  0.06749  0.78837  11.00000 -1.50000 
O1W   4     0.51334  0.09097  0.61236  11.00000  0.04808  0.06497  0.04273 =
 -0.02988 -0.02313  0.02451 
H1Wa  2     0.43061  0.10424  0.57098  11.00000 -1.50000 
H1Wb  2     0.59763  0.02503  0.58359  11.00000 -1.50000 
AFIX 0
HKLF 4

END
Q1 1 -0.041667 1.037037 0.638889 11 0.05 0.27
Q4 1 -0.291667 1.037037 0.694444 11 0.05 0.22
Q7 1 0.041667 0.592593 0.888889 11 0.05 0.21
Q8 1 0.125 0.518519 0.25 11 0.05 0.21
Q11 1 -0.208333 0.777778 0.75 11 0.05 0.19
Q14 1 -0.125 0.62963 0.277778 11 0.05 0.19
Q16 1 0.291667 0.592593 0.916667 11 0.05 0.19
Q15 1 -0.458333 0.851852 0.833333 11 0.05 0.19
Q23 1 0.166667 0.703704 0.777778 11 0.05 0.18
Q20 1 0.5 0.740741 -0.027778 11 0.05 0.18
Q22 1 0.25 0.851852 0.638889 11 0.05 0.18
Q21 1 -0.041667 0.37037 0.388889 11 0.05 0.18
Q30 1 -0.583333 0.777778 0.305556 11 0.05 0.17
Q26 1 0.291667 0.185185 0.333333 11 0.05 0.17
Q27 1 -0.166667 0.777778 0.916667 11 0.05 0.17
Q28 1 -0.166667 0.518519 0.416667 11 0.05 0.17
Q29 1 0.125 0.407407 0.333333 11 0.05 0.17
Q38 1 0.208333 0.222222 0.555556 11 0.05 0.16
Q39 1 -0.041667 0.740741 0.111111 11 0.05 0.16
Q40 1 0.333333 0.962963 0.583333 11 0.05 0.16

  REM The information below was added by Olex2.
  REM
  REM R1 = 0.0389 for 2059 Fo > 4sig(Fo) and 0.0520 for all 2535 data
  REM 209 parameters refined using 0 restraints
  REM Highest difference peak 0.2750, deepest hole -0.3218
  REM Mean Shift 0.0000, Max Shift 0.0000.

  REM +++ Tabular Listing of Refinement Information +++
  REM R1_all = 0.0520
  REM R1_gt = 0.0389
  REM wR_ref = 0.1075
  REM GOOF = 1.0544
  REM Shift_max = 0.0000
  REM Shift_mean = 0.0000
  REM Reflections_all = 2535
  REM Reflections_gt = 2059
  REM Parameters = 209
  REM Hole = -0.3218
  REM Peak = 0.2750
  REM Flack = n/a

  
;
_cod_data_source_file            suppl_ncrs-2020-0004_suppl.cif
_cod_data_source_block           1
_cod_database_code               8105285
_olex2_refinement_description
;
1. Fixed Uiso
 At 1.2 times of:
  All C(H) groups, All N(H) groups
 At 1.5 times of:
  All O(H) groups, All O(H,H) groups
2.a Free rotating group:
 O2W(H2Wa,H2Wb,O1W,H1Wa,H1Wb)
2.b Aromatic/amide H refined with riding coordinates:
 C3(H3), C4(H4), C5(H5), C10(H10), C11(H11), C12(H12), C13(H13), N2(H2)
2.c Idealised tetrahedral OH refined as rotating group:
 O1(H1)
;
_iucr_refine_fcf_details
;
data_1
_computing_structure_refinement   'olex2.refine (Bourhis et al., 2015)'
_shelx_refln_list_code            4
loop_
  _space_group_symop_id
  _space_group_symop_operation_xyz
  1  x,y,z
  2  -x,-y,-z

_space_group_crystal_system       triclinic
_space_group_IT_number            2
_space_group_name_H-M_alt         'P -1'
_space_group_name_Hall            '-P 1'
_symmetry_space_group_name_H-M    'P -1'
_symmetry_space_group_name_Hall   '-P 1'
_symmetry_Int_Tables_number       2
_cell_length_a                    7.8590(6)
_cell_length_b                    9.3108(8)
_cell_length_c                    11.0816(8)
_cell_angle_alpha                 66.950(3)
_cell_angle_beta                  71.558(3)
_cell_angle_gamma                 77.203(4)
_cell_volume                      703.38(10)
loop_
  _refln_index_h
  _refln_index_k
  _refln_index_l
  _refln_F_squared_calc
  _refln_F_squared_meas
  _refln_F_squared_sigma
  _refln_F_squared_weight
  _refln_observed_status
-8 -4 1 25.666 34.360 3.902 26.755 o
-8 -3 1 0.012 1.228 3.142 69.937 o
-8 -3 2 22.469 14.981 3.676 33.928 o
-8 -2 1 0.990 2.806 2.888 79.270 o
-8 -2 2 2.708 -2.199 3.178 65.704 o
-8 -1 1 57.789 59.323 3.983 16.086 o
-8 -1 2 33.020 36.891 3.868 24.390 o
-8 0 1 4.450 7.126 3.155 60.215 o
-8 0 2 4.522 -0.528 3.124 65.509 o
-8 0 3 1.509 3.508 3.490 54.456 o
-8 1 1 29.062 33.196 2.968 33.931 o
-8 1 2 7.034 4.549 3.778 43.111 o
-8 2 1 1.036 -0.269 2.513 107.238 o
-8 2 2 47.581 48.502 3.507 20.912 o
-8 3 1 2.191 3.257 2.746 84.114 o
-7 -6 1 48.627 42.047 4.002 19.262 o
-7 -5 1 27.871 32.290 3.475 29.945 o
-7 -5 2 116.312 111.315 6.303 6.137 o
-7 -4 1 71.359 65.575 4.904 11.789 o
-7 -4 2 9.449 8.839 1.498 133.906 o
-7 -4 3 59.355 72.218 3.882 15.118 o
-7 -3 1 74.792 70.921 4.714 11.563 o
-7 -3 2 33.016 25.137 3.183 31.924 o
-7 -3 3 0.115 -3.162 2.914 82.090 o
-7 -3 4 60.183 60.236 4.538 14.140 o
-7 -2 1 55.011 55.247 3.083 19.956 o
-7 -2 2 93.287 105.052 3.547 9.952 o
-7 -2 3 3.987 2.191 2.804 78.591 o
-7 -2 4 0.096 -1.960 3.252 65.976 o
-7 -1 1 96.692 94.188 4.637 8.966 o
-7 -1 2 4.404 3.602 2.453 95.953 o
-7 -1 3 4.865 4.363 2.841 73.419 o
-7 -1 4 26.959 25.293 3.545 31.114 o
-7 -1 5 4.200 2.297 4.537 32.259 o
-7 0 1 152.714 146.936 5.946 4.669 o
-7 0 2 117.232 113.274 5.129 6.870 o
-7 0 3 1.522 2.030 3.633 50.995 o
-7 0 4 12.195 12.249 3.198 48.977 o
-7 0 5 37.933 29.109 3.949 23.586 o
-7 1 1 0.026 -1.039 1.955 182.642 o
-7 1 2 73.267 65.277 4.235 12.939 o
-7 1 3 1.719 -0.243 2.693 92.040 o
-7 1 4 0.230 0.172 3.025 75.883 o
-7 1 5 87.199 101.574 5.990 7.857 o
-7 2 1 36.496 33.205 2.649 32.867 o
-7 2 2 8.719 7.610 2.191 93.621 o
-7 2 3 13.731 12.897 2.970 52.452 o
-7 2 4 2.963 4.570 3.100 65.473 o
-7 2 5 14.514 17.268 3.676 37.220 o
-7 3 1 169.852 166.251 5.161 4.267 o
-7 3 2 12.507 12.036 3.876 36.558 o
-7 3 3 42.818 44.343 3.214 24.245 o
-7 3 4 0.090 3.813 2.623 96.039 o
-7 4 1 0.245 -1.352 1.764 221.202 o
-7 4 2 41.336 47.610 3.648 21.932 o
-7 4 3 0.014 1.878 2.996 76.263 o
-7 5 1 0.413 -0.332 1.593 266.827 o
-7 5 2 136.037 141.513 3.951 6.096 o
-6 -7 1 42.724 37.589 4.205 20.027 o
-6 -7 2 3.706 4.685 2.018 131.752 o
-6 -6 1 3.804 4.690 2.716 80.996 o
-6 -6 2 0.189 -1.372 2.907 82.356 o
-6 -6 3 6.771 9.239 2.165 98.562 o
-6 -5 1 86.156 87.159 7.103 7.068 o
-6 -5 2 19.915 14.419 2.906 47.351 o
-6 -5 3 6.383 5.524 1.862 130.131 o
-6 -5 4 2.965 3.839 2.579 91.512 o
-6 -4 1 64.059 55.197 5.798 11.085 o
-6 -4 2 26.691 19.302 1.940 55.106 o
-6 -4 3 0.799 -0.686 2.770 89.254 o
-6 -4 4 63.680 67.534 3.280 16.319 o
-6 -4 5 13.165 13.262 2.668 60.623 o
-6 -3 1 142.522 150.455 4.861 5.328 o
-6 -3 2 214.444 202.011 11.932 2.053 o
-6 -3 3 2.865 3.039 2.856 77.297 o
-6 -3 4 15.656 13.252 1.730 87.030 o
-6 -3 5 18.490 19.581 2.187 61.257 o
-6 -2 1 31.691 29.284 3.263 30.851 o
-6 -2 2 0.066 2.014 1.235 402.718 o
-6 -2 3 82.651 78.154 5.093 9.978 o
-6 -2 4 51.741 39.844 3.931 19.146 o
-6 -2 5 45.569 46.552 3.726 20.650 o
-6 -2 6 1.957 1.300 3.342 59.816 o
-6 -1 1 448.220 474.289 8.410 0.824 o
-6 -1 2 190.879 207.974 4.583 3.534 o
-6 -1 3 1.363 2.871 1.616 220.438 o
-6 -1 4 0.669 -1.387 1.428 321.919 o
-6 -1 5 106.575 95.274 5.526 7.492 o
-6 -1 6 0.077 3.829 3.226 64.718 o
-6 0 1 13.940 11.995 2.872 55.067 o
-6 0 2 74.965 75.301 4.221 12.215 o
-6 0 3 639.403 676.060 12.951 0.419 o
-6 0 4 0.250 3.849 2.495 105.026 o
-6 0 5 48.919 54.040 3.668 19.302 o
-6 0 6 78.734 87.165 5.329 9.597 o
-6 1 1 96.578 100.216 5.192 8.210 o
-6 1 2 581.521 622.214 11.386 0.501 o
-6 1 3 27.153 22.317 4.467 23.723 o
-6 1 4 9.713 10.136 2.574 71.204 o
-6 1 5 87.213 91.293 5.179 9.077 o
-6 1 6 16.855 16.194 3.302 42.009 o
-6 1 7 13.768 13.237 3.732 37.803 o
-6 2 1 10.108 11.550 2.027 92.408 o
-6 2 2 48.964 47.820 3.269 21.695 o
-6 2 3 50.599 51.054 3.359 20.488 o
-6 2 4 57.314 58.480 3.748 16.947 o
-6 2 5 1.351 1.996 2.807 83.767 o
-6 2 6 4.641 -0.126 4.924 27.752 o
-6 3 1 229.345 197.339 8.130 2.517 o
-6 3 2 109.261 109.554 4.287 8.003 o
-6 3 3 47.561 41.732 2.999 24.275 o
-6 3 4 0.227 -2.419 2.935 80.740 o
-6 3 5 276.953 295.049 8.074 1.769 o
-6 3 6 0.110 -1.950 3.117 71.802 o
-6 4 1 26.839 28.964 2.049 47.809 o
-6 4 2 17.712 17.108 2.319 60.987 o
-6 4 3 163.417 151.825 5.514 4.489 o
-6 4 4 0.460 -0.183 2.156 147.457 o
-6 4 5 35.146 31.924 3.672 25.828 o
-6 4 6 68.602 66.510 6.378 9.342 o
-6 5 1 40.390 29.180 2.604 32.243 o
-6 5 2 15.098 15.572 2.411 63.503 o
-6 5 3 4.648 8.036 2.347 95.674 o
-6 5 4 28.709 18.971 3.655 30.615 o
-6 5 5 0.859 0.440 3.452 57.626 o
-6 6 1 68.264 63.411 3.729 14.823 o
-6 6 2 20.800 15.290 2.705 49.951 o
-6 6 3 8.280 9.770 2.803 65.496 o
-6 6 4 13.430 12.955 3.046 50.971 o
-5 -8 1 5.220 8.553 4.344 33.519 o
-5 -7 1 4.334 5.718 1.478 190.775 o
-5 -7 2 7.276 5.626 1.703 139.406 o
-5 -7 3 117.659 123.118 6.396 5.826 o
-5 -6 1 25.447 23.011 2.618 43.810 o
-5 -6 2 55.721 57.786 2.722 20.697 o
-5 -6 3 0.067 -1.179 1.350 380.813 o
-5 -6 4 0.660 -0.118 1.103 519.223 o
-5 -5 1 8.535 7.040 2.455 81.400 o
-5 -5 2 165.321 141.188 5.090 4.713 o
-5 -5 3 77.853 62.288 4.385 12.300 o
-5 -5 4 64.442 73.689 3.305 15.605 o
-5 -5 5 12.575 15.027 1.557 101.190 o
-5 -4 1 102.618 107.385 4.018 8.715 o
-5 -4 2 98.547 95.260 4.409 9.041 o
-5 -4 3 151.532 138.599 5.714 4.899 o
-5 -4 4 0.076 -0.388 1.569 282.179 o
-5 -4 5 44.238 45.431 3.463 22.380 o
-5 -4 6 1.153 -0.469 1.573 258.728 o
-5 -3 2 6.108 2.839 1.679 160.026 o
-5 -3 3 7.727 9.049 1.362 156.758 o
-5 -3 4 14.114 11.269 2.299 72.184 o
-5 -3 5 203.649 187.075 4.801 3.457 o
-5 -3 6 12.726 5.652 3.488 44.971 o
-5 -2 1 497.214 477.823 8.207 0.733 o
-5 -2 2 388.497 404.412 10.796 0.984 o
-5 -2 3 0.571 -0.726 0.932 712.560 o
-5 -2 4 123.063 117.706 3.373 7.572 o
-5 -2 5 96.466 98.340 3.643 9.870 o
-5 -2 6 0.224 2.929 2.614 97.534 o
-5 -2 7 0.799 3.678 2.032 150.120 o
-5 -1 1 429.646 445.402 7.774 0.907 o
-5 -1 2 46.416 46.801 3.074 23.468 o
-5 -1 3 362.356 366.837 13.699 0.995 o
-5 -1 4 17.466 17.474 2.294 61.692 o
-5 -1 5 73.865 66.078 4.276 12.741 o
-5 -1 6 1.299 -0.541 2.578 101.265 o
-5 -1 7 92.205 90.995 6.371 7.475 o
-5 0 1 504.410 482.051 10.046 0.693 o
-5 0 2 191.238 182.677 5.479 3.590 o
-5 0 3 428.807 430.733 8.377 0.914 o
-5 0 4 585.116 582.809 15.202 0.480 o
-5 0 5 86.465 82.348 6.752 7.526 o
-5 0 6 8.727 10.780 2.646 69.652 o
-5 0 7 36.353 32.321 2.266 36.429 o
-5 0 8 15.242 10.775 3.374 43.673 o
-5 1 1 121.623 122.276 4.395 6.932 o
-5 1 2 35.587 85.712 12.762 3.745 o
-5 1 3 238.830 245.402 5.903 2.456 o
-5 1 4 686.965 736.506 14.832 0.358 o
-5 1 5 106.372 116.723 5.026 7.383 o
-5 1 6 276.013 290.171 7.377 1.841 o
-5 1 7 0.455 -1.593 3.054 74.211 o
-5 1 8 48.076 40.302 3.518 21.775 o
-5 2 1 1.480 1.854 0.528 922.443 o
-5 2 2 82.865 83.225 5.526 9.183 o
-5 2 3 80.819 77.295 3.749 12.266 o
-5 2 4 247.028 248.309 8.463 2.099 o
-5 2 5 255.619 251.531 9.673 1.902 o
-5 2 6 480.077 533.349 10.708 0.682 o
-5 2 7 0.284 -1.882 2.747 91.955 o
-5 2 8 0.211 1.052 3.124 70.585 o
-5 3 1 6.495 2.736 1.305 210.143 o
-5 3 2 350.642 345.459 7.120 1.323 o
-5 3 3 198.195 205.563 4.529 3.435 o
-5 3 4 197.303 210.684 5.789 3.203 o
-5 3 5 173.041 165.713 4.160 4.450 o
-5 3 6 27.081 26.107 3.096 35.576 o
-5 3 7 48.278 51.553 4.837 15.396 o
-5 3 8 54.625 52.721 4.254 16.283 o
-5 4 1 2.482 1.908 1.941 156.905 o
-5 4 2 9.010 4.803 1.784 124.928 o
-5 4 3 30.098 29.519 2.740 36.706 o
-5 4 4 44.767 35.520 2.757 27.748 o
-5 4 5 0.642 1.956 1.718 213.597 o
-5 4 6 10.461 12.697 2.251 79.932 o
-5 4 7 68.052 69.102 3.288 15.426 o
-5 4 8 0.333 -5.011 3.460 58.064 o
-5 5 1 18.586 13.115 2.374 61.191 o
-5 5 2 2.647 -2.266 1.684 207.761 o
-5 5 3 80.295 83.876 6.008 8.686 o
-5 5 4 270.743 283.126 7.123 1.919 o
-5 5 5 136.855 135.034 5.395 5.534 o
-5 5 6 5.873 8.666 2.237 97.848 o
-5 5 7 7.408 3.976 3.874 41.201 o
-5 6 1 14.807 12.393 2.385 67.209 o
-5 6 2 31.498 28.522 3.050 33.085 o
-5 6 3 119.220 121.764 5.458 6.386 o
-5 6 4 33.348 33.713 2.782 33.265 o
-5 6 5 52.828 51.590 3.268 20.241 o
-5 6 6 89.731 91.080 4.576 9.644 o
-5 7 1 0.111 0.131 2.346 126.228 o
-5 7 2 6.231 6.046 2.346 94.077 o
-5 7 3 88.678 86.133 4.280 10.298 o
-5 7 4 1.785 -2.976 3.146 68.168 o
-5 7 5 10.783 17.915 2.946 53.447 o
-4 -9 1 1.033 -4.904 3.156 68.772 o
-4 -8 1 28.419 30.070 2.082 45.319 o
-4 -8 2 15.329 16.965 3.269 43.353 o
-4 -7 1 0.093 2.923 2.251 130.055 o
-4 -7 2 27.792 22.876 3.073 36.358 o
-4 -7 3 58.560 45.895 4.431 15.643 o
-4 -7 4 4.045 4.497 3.481 52.151 o
-4 -6 1 48.070 48.059 1.488 29.816 o
-4 -6 2 153.082 172.078 9.143 3.349 o
-4 -6 3 53.705 55.798 3.696 18.039 o
-4 -6 4 5.607 4.931 2.634 81.229 o
-4 -6 5 19.372 17.526 2.427 56.008 o
-4 -5 1 356.866 360.631 7.379 1.260 o
-4 -5 2 393.269 407.993 17.231 0.775 o
-4 -5 3 248.962 238.843 6.185 2.359 o
-4 -5 4 4.803 8.036 1.872 130.941 o
-4 -5 5 55.539 55.319 3.138 19.628 o
-4 -5 6 9.084 11.571 2.296 82.388 o
-4 -4 1 674.543 701.525 16.755 0.364 o
-4 -4 2 38.024 32.609 2.495 33.449 o
-4 -4 3 169.381 152.923 5.659 4.290 o
-4 -4 4 0.704 0.556 1.884 186.766 o
-4 -4 5 4.988 6.736 1.851 135.534 o
-4 -4 6 1.074 4.526 1.416 261.576 o
-4 -4 7 0.443 -0.049 1.447 320.684 o
-4 -3 1 76.329 70.988 2.844 14.840 o
-4 -3 2 41.115 50.149 3.279 23.530 o
-4 -3 3 16.712 13.104 1.420 95.633 o
-4 -3 4 0.338 -0.399 1.392 348.588 o
-4 -3 5 0.689 2.802 1.701 211.221 o
-4 -3 6 61.608 53.903 3.919 16.094 o
-4 -3 7 2.416 -0.038 1.471 264.271 o
-4 -2 1 138.900 146.032 2.912 6.271 o
-4 -2 2 311.166 317.940 5.282 1.654 o
-4 -2 3 201.172 231.403 4.358 3.198 o
-4 -2 4 1.910 -1.914 1.514 261.564 o
-4 -2 5 10.327 5.874 2.476 77.941 o
-4 -2 6 302.595 300.480 7.317 1.652 o
-4 -2 7 74.252 88.526 3.456 12.854 o
-4 -2 8 31.300 31.880 2.583 36.839 o
-4 -1 1 202.875 221.434 3.318 3.375 o
-4 -1 2 82.772 92.389 3.051 12.193 o
-4 -1 3 0.367 1.888 0.978 575.193 o
-4 -1 4 29.640 29.184 1.694 49.209 o
-4 -1 5 73.103 66.944 2.455 16.470 o
-4 -1 6 0.000 1.199 1.538 281.648 o
-4 -1 7 3.426 6.611 1.993 130.657 o
-4 -1 8 190.997 194.414 4.467 3.676 o
-4 0 1 404.673 429.579 7.536 0.993 o
-4 0 2 25.785 23.479 1.707 57.361 o
-4 0 3 94.954 104.240 3.391 9.999 o
-4 0 4 51.462 47.907 3.331 20.777 o
-4 0 5 7.381 14.312 2.356 80.504 o
-4 0 6 143.421 142.126 6.678 4.673 o
-4 0 7 94.017 88.997 3.358 10.809 o
-4 0 8 24.637 25.339 1.813 55.958 o
-4 0 9 13.345 11.717 2.186 77.324 o
-4 1 1 48.761 38.571 3.865 20.203 o
-4 1 2 4.319 6.884 1.319 209.189 o
-4 1 3 0.834 2.029 1.371 311.316 o
-4 1 4 61.473 60.976 3.517 16.664 o
-4 1 5 173.781 179.179 5.718 3.899 o
-4 1 6 71.939 78.230 6.512 8.626 o
-4 1 7 0.306 -0.012 2.931 80.802 o
-4 1 8 75.751 82.656 3.590 12.808 o
-4 1 9 3.231 6.949 1.713 162.232 o
-4 2 1 141.320 168.346 3.531 5.537 o
-4 2 2 144.063 137.788 3.806 5.910 o
-4 2 3 366.142 383.900 6.150 1.218 o
-4 2 4 42.704 49.501 2.090 29.372 o
-4 2 5 2.250 1.261 1.281 315.344 o
-4 2 6 241.209 253.942 14.793 1.467 o
-4 2 7 741.234 805.265 22.215 0.278 o
-4 2 8 10.062 4.348 3.365 50.204 o
-4 2 9 2.257 3.520 1.747 181.034 o
-4 3 1 6.842 6.319 1.253 190.762 o
-4 3 2 79.280 82.684 3.826 12.017 o
-4 3 3 225.817 119.733 8.441 2.925 o
-4 3 4 65.355 67.878 3.250 16.070 o
-4 3 5 94.613 103.376 3.547 9.910 o
-4 3 6 126.866 132.323 3.589 6.873 o
-4 3 7 135.564 144.559 5.945 5.170 o
-4 3 8 22.792 25.018 2.675 44.329 o
-4 3 9 172.952 183.196 5.635 3.896 o
-4 4 1 2.734 -0.189 1.650 213.940 o
-4 4 2 18.864 16.380 2.694 51.574 o
-4 4 3 45.550 36.792 2.798 26.944 o
-4 4 4 88.954 84.174 4.532 10.028 o
-4 4 5 44.028 41.366 2.267 29.694 o
-4 4 6 431.670 464.658 10.326 0.832 o
-4 4 7 120.789 125.121 4.103 7.077 o
-4 4 8 28.570 27.626 2.487 41.261 o
-4 4 9 118.535 123.033 5.561 6.322 o
-4 5 1 267.831 267.321 12.733 1.515 o
-4 5 2 0.054 1.798 2.445 113.407 o
-4 5 3 21.851 25.835 3.075 39.019 o
-4 5 4 5.164 5.315 2.136 113.127 o
-4 5 5 168.643 163.141 4.763 4.441 o
-4 5 6 26.257 20.502 2.289 49.197 o
-4 5 7 47.265 45.842 3.503 21.343 o
-4 5 8 159.661 173.413 6.506 4.024 o
-4 5 9 6.387 3.862 3.048 63.471 o
-4 6 1 775.364 842.683 16.376 0.284 o
-4 6 2 2.511 2.048 1.599 213.935 o
-4 6 3 5.579 3.707 1.703 157.734 o
-4 6 4 12.504 12.267 1.982 86.836 o
-4 6 5 32.897 30.307 2.453 37.616 o
-4 6 6 2.737 1.497 1.955 154.588 o
-4 6 7 2.632 4.402 1.959 145.155 o
-4 6 8 4.963 5.420 3.325 55.310 o
-4 7 1 9.821 7.190 2.402 80.906 o
-4 7 2 42.624 48.251 2.977 24.942 o
-4 7 3 200.267 219.649 5.606 3.123 o
-4 7 4 63.273 57.065 3.237 17.481 o
-4 7 5 10.008 9.447 3.140 53.600 o
-4 7 6 64.245 68.252 5.418 11.299 o
-4 7 7 16.765 17.914 2.769 51.366 o
-4 8 1 22.695 17.585 3.430 36.243 o
-4 8 2 0.323 2.224 2.870 82.010 o
-4 8 3 5.756 6.731 2.370 92.999 o
-4 8 4 1.661 2.015 2.623 94.282 o
-4 8 5 25.878 24.133 3.063 37.222 o
-4 8 6 25.737 23.194 3.006 38.299 o
-3 -9 1 74.506 74.916 4.811 11.233 o
-3 -9 2 9.704 7.479 3.468 46.894 o
-3 -8 1 5.475 6.558 2.889 68.787 o
-3 -8 2 11.227 12.845 2.845 58.378 o
-3 -8 3 104.316 109.189 5.728 7.096 o
-3 -7 1 114.719 111.436 4.536 7.458 o
-3 -7 2 23.599 17.888 2.633 47.383 o
-3 -7 3 0.646 3.126 1.482 265.260 o
-3 -7 4 0.147 -1.395 2.612 101.997 o
-3 -7 5 140.052 166.735 5.346 4.969 o
-3 -6 1 103.209 103.723 4.554 8.319 o
-3 -6 2 119.249 114.148 5.635 6.422 o
-3 -6 3 332.909 343.028 16.687 0.963 o
-3 -6 4 13.868 14.940 2.822 54.763 o
-3 -6 5 28.461 29.177 2.412 41.653 o
-3 -6 6 64.446 75.702 8.732 6.320 o
-3 -5 1 282.622 285.924 5.503 1.933 o
-3 -5 2 7.858 9.181 1.400 151.651 o
-3 -5 3 287.134 304.332 15.164 1.205 o
-3 -5 4 6.976 4.529 3.599 46.990 o
-3 -5 5 8.046 9.104 2.092 99.009 o
-3 -5 6 6.963 7.008 3.002 62.339 o
-3 -5 7 2.232 3.527 2.160 127.799 o
-3 -4 1 13.863 15.373 0.870 124.621 o
-3 -4 2 18.626 19.879 2.550 52.908 o
-3 -4 3 0.131 -0.723 1.394 355.130 o
-3 -4 4 295.489 316.991 5.332 1.749 o
-3 -4 5 29.223 24.454 1.473 55.328 o
-3 -4 6 47.545 45.432 2.687 25.207 o
-3 -4 7 19.923 17.316 2.374 56.607 o
-3 -4 8 0.034 0.778 2.289 131.366 o
-3 -3 1 110.937 108.929 3.481 8.528 o
-3 -3 2 174.197 183.763 4.258 4.181 o
-3 -3 3 21.758 16.659 1.914 64.775 o
-3 -3 4 277.138 258.377 5.670 2.069 o
-3 -3 5 123.696 133.042 3.614 7.001 o
-3 -3 6 185.809 179.202 3.868 4.046 o
-3 -3 7 22.632 18.047 1.491 71.405 o
-3 -3 8 39.457 35.547 2.292 33.383 o
-3 -2 1 17.008 15.504 1.279 95.475 o
-3 -2 2 18.924 8.447 1.204 104.132 o
-3 -2 3 42.007 53.716 1.884 29.718 o
-3 -2 4 282.544 287.997 6.135 1.887 o
-3 -2 5 179.087 181.440 3.925 4.162 o
-3 -2 6 10.807 9.950 1.221 142.043 o
-3 -2 7 60.238 63.043 2.667 19.098 o
-3 -2 8 22.998 21.860 1.809 60.849 o
-3 -2 9 1.197 2.365 2.203 131.228 o
-3 -1 1 2131.410 2172.300 31.259 0.044 o
-3 -1 2 441.607 526.192 7.567 0.798 o
-3 -1 3 64.018 62.958 1.872 20.155 o
-3 -1 4 17.019 20.455 0.951 96.380 o
-3 -1 5 91.236 99.125 2.131 11.798 o
-3 -1 6 5.539 4.327 1.271 218.205 o
-3 -1 7 20.024 17.277 1.465 78.715 o
-3 -1 8 6.742 8.953 2.930 63.813 o
-3 -1 9 58.160 53.231 2.585 21.109 o
-3 0 1 173.006 177.090 3.699 4.408 o
-3 0 2 521.823 486.119 8.114 0.687 o
-3 0 3 4.840 4.597 1.128 255.108 o
-3 0 4 69.654 75.045 2.127 16.953 o
-3 0 5 63.600 64.043 3.836 15.213 o
-3 0 6 14.136 13.459 1.053 120.756 o
-3 0 7 29.661 26.991 1.662 50.805 o
-3 0 8 16.544 13.384 1.369 97.628 o
-3 0 9 53.444 52.369 2.830 21.659 o
-3 0 10 0.000 0.278 2.158 149.235 o
-3 1 1 499.022 509.937 8.309 0.702 o
-3 1 2 379.156 385.479 5.740 1.179 o
-3 1 3 5.201 4.273 0.794 326.634 o
-3 1 4 106.619 107.448 2.535 9.573 o
-3 1 5 0.071 -0.112 0.957 751.242 o
-3 1 6 0.007 -0.115 1.072 607.783 o
-3 1 7 32.839 35.900 2.592 34.618 o
-3 1 8 36.846 38.953 2.065 35.606 o
-3 1 9 1.920 4.690 1.629 198.896 o
-3 1 10 4.363 4.292 2.414 97.642 o
-3 2 1 1598.990 1758.730 22.882 0.074 o
-3 2 2 221.163 223.080 4.603 2.938 o
-3 2 3 485.173 509.063 8.680 0.721 o
-3 2 4 47.307 40.573 2.395 27.714 o
-3 2 5 163.171 158.692 3.724 4.926 o
-3 2 6 1.317 1.252 1.122 425.369 o
-3 2 7 28.897 29.651 2.048 45.486 o
-3 2 8 0.945 1.822 1.541 254.799 o
-3 2 9 0.588 0.202 1.513 288.418 o
-3 2 10 56.331 55.664 2.915 20.162 o
-3 3 1 43.815 60.416 2.279 25.714 o
-3 3 2 9.431 11.010 1.113 156.510 o
-3 3 3 160.147 190.075 4.484 4.389 o
-3 3 4 547.515 593.161 11.118 0.553 o
-3 3 5 35.834 30.960 1.892 40.574 o
-3 3 6 0.234 -0.088 1.303 401.086 o
-3 3 7 124.845 121.748 6.418 5.602 o
-3 3 8 34.533 33.430 2.286 37.084 o
-3 3 9 62.186 61.256 3.568 16.374 o
-3 3 10 3.232 1.459 1.926 155.103 o
-3 4 1 121.963 115.798 2.895 7.953 o
-3 4 2 403.910 418.324 6.736 1.028 o
-3 4 3 113.033 110.193 3.315 8.461 o
-3 4 4 345.120 345.781 9.859 1.235 o
-3 4 5 272.241 271.779 7.096 1.950 o
-3 4 6 58.132 55.478 2.886 19.840 o
-3 4 7 83.541 82.619 3.950 11.387 o
-3 4 8 25.777 24.252 2.237 48.584 o
-3 4 9 126.811 122.673 5.171 6.238 o
-3 4 10 82.502 79.395 4.666 10.568 o
-3 5 1 10.183 12.316 1.857 99.713 o
-3 5 2 63.355 63.778 4.687 13.180 o
-3 5 4 43.051 44.029 2.509 28.154 o
-3 5 5 40.774 40.877 3.626 23.100 o
-3 5 6 29.308 33.946 3.102 32.341 o
-3 5 7 5.259 4.513 2.001 125.923 o
-3 5 8 11.991 14.788 2.064 81.584 o
-3 5 9 59.203 56.732 3.666 17.015 o
-3 5 10 24.734 29.046 2.971 37.542 o
-3 6 1 522.052 535.306 13.917 0.581 o
-3 6 2 699.425 710.529 13.475 0.366 o
-3 6 3 56.543 55.620 3.130 19.389 o
-3 6 4 287.848 295.683 12.612 1.386 o
-3 6 5 37.167 39.615 2.982 28.545 o
-3 6 6 3.315 3.562 2.375 104.742 o
-3 6 7 1.759 1.737 2.446 107.438 o
-3 6 8 65.851 82.371 4.157 12.963 o
-3 6 9 21.575 22.334 2.958 42.040 o
-3 7 1 395.802 437.464 8.661 0.981 o
-3 7 2 215.033 226.087 6.646 2.732 o
-3 7 3 1.405 2.590 2.181 132.034 o
-3 7 4 342.825 364.654 7.078 1.317 o
-3 7 5 8.753 5.236 2.424 84.457 o
-3 7 6 13.169 9.829 2.693 62.202 o
-3 7 7 47.526 48.270 4.098 18.469 o
-3 7 8 82.809 87.358 5.400 9.219 o
-3 7 9 0.842 -2.391 2.046 160.566 o
-3 8 1 1.352 -0.591 2.403 115.720 o
-3 8 2 68.965 67.148 4.644 12.474 o
-3 8 3 36.428 37.033 3.286 27.212 o
-3 8 4 644.655 676.293 12.924 0.415 o
-3 8 5 26.569 28.276 3.337 32.713 o
-3 8 6 6.163 4.728 2.941 67.091 o
-3 8 7 26.737 28.642 3.151 34.480 o
-3 8 8 12.228 10.679 4.449 29.550 o
-3 9 1 73.541 91.788 5.416 9.675 o
-3 9 2 46.264 47.560 3.904 19.596 o
-3 9 3 0.054 -5.219 2.991 78.050 o
-3 9 4 11.024 7.934 3.407 47.081 o
-3 9 5 38.060 35.684 3.976 22.529 o
-3 9 6 17.427 15.344 3.671 36.310 o
-2 -9 1 5.188 4.050 2.801 74.944 o
-2 -9 2 26.924 32.710 3.569 29.401 o
-2 -8 1 7.430 7.556 2.679 73.249 o
-2 -8 2 62.699 52.458 4.179 15.297 o
-2 -8 3 47.595 53.566 3.715 19.453 o
-2 -8 4 85.178 85.819 6.890 7.357 o
-2 -7 1 289.162 320.486 14.091 1.241 o
-2 -7 2 12.160 12.452 5.577 19.877 o
-2 -7 3 0.750 -2.548 5.100 26.723 o
-2 -7 4 65.854 77.249 6.352 9.227 o
-2 -7 5 62.508 66.363 3.414 16.285 o
-2 -6 1 397.381 394.507 7.712 1.059 o
-2 -6 2 2127.630 2244.970 38.504 0.042 o
-2 -6 3 6.484 1.109 3.113 62.763 o
-2 -6 4 7.454 8.384 2.039 105.579 o
-2 -6 5 5.851 7.501 1.383 178.446 o
-2 -6 6 2.284 1.621 2.814 81.882 o
-2 -5 1 49.053 49.921 4.207 17.613 o
-2 -5 2 417.364 418.804 9.689 0.926 o
-2 -5 3 101.941 102.898 3.533 9.354 o
-2 -5 4 345.120 350.611 6.021 1.373 o
-2 -5 5 26.096 22.873 1.592 59.197 o
-2 -5 6 47.997 45.095 2.536 25.837 o
-2 -5 7 2.145 3.602 1.956 151.319 o
-2 -4 1 20.315 19.900 1.211 80.883 o
-2 -4 2 43.440 41.469 2.251 30.043 o
-2 -4 3 799.420 832.048 12.885 0.288 o
-2 -4 4 1.175 1.023 1.047 488.815 o
-2 -4 5 684.430 685.932 10.319 0.399 o
-2 -4 6 107.844 121.295 3.944 7.996 o
-2 -4 7 9.609 6.872 1.734 120.703 o
-2 -4 8 1.399 -0.641 1.865 186.099 o
-2 -3 1 0.015 0.238 0.889 855.290 o
-2 -3 2 74.469 78.600 1.767 16.213 o
-2 -3 3 595.783 579.594 9.584 0.522 o
-2 -3 4 73.883 74.048 1.993 16.437 o
-2 -3 5 54.227 54.205 1.793 24.796 o
-2 -3 6 418.066 446.237 6.451 0.957 o
-2 -3 7 1.270 1.427 1.615 232.878 o
-2 -3 8 8.424 6.917 1.260 170.254 o
-2 -3 9 6.407 10.071 2.086 103.258 o
-2 -2 1 428.357 415.029 6.808 0.965 o
-2 -2 2 5028.600 4974.380 69.890 0.008 o
-2 -2 3 646.124 695.574 9.695 0.426 o
-2 -2 4 1.283 -0.548 0.815 761.356 o
-2 -2 5 0.298 0.036 0.851 888.667 o
-2 -2 6 374.555 383.632 5.635 1.201 o
-2 -2 7 59.893 57.873 2.243 21.040 o
-2 -2 8 20.395 18.329 1.612 72.975 o
-2 -2 9 38.266 39.965 2.216 33.356 o
-2 -1 1 182.969 164.272 2.670 4.501 o
-2 -1 2 331.897 326.373 4.861 1.532 o
-2 -1 3 425.405 461.048 5.942 0.928 o
-2 -1 4 7.189 5.786 0.586 284.672 o
-2 -1 5 1.231 1.726 0.619 875.355 o
-2 -1 6 38.394 36.239 1.394 40.227 o
-2 -1 7 58.209 63.791 1.799 21.852 o
-2 -1 8 26.079 24.795 1.771 55.064 o
-2 -1 9 139.472 137.150 4.817 5.673 o
-2 -1 10 34.920 34.792 2.565 33.987 o
-2 0 1 1534.690 1398.480 20.154 0.091 o
-2 0 2 2.349 1.408 0.473 838.404 o
-2 0 3 368.689 382.421 5.631 1.225 o
-2 0 4 13.575 7.903 0.871 151.663 o
-2 0 5 1252.440 1324.920 15.921 0.124 o
-2 0 6 297.382 325.281 4.710 1.738 o
-2 0 7 5.246 6.341 0.882 277.257 o
-2 0 8 109.163 113.113 2.973 8.860 o
-2 0 9 21.770 19.838 1.553 69.990 o
-2 0 10 0.837 0.465 1.322 356.695 o
-2 1 1 525.002 518.968 8.089 0.658 o
-2 1 2 0.280 0.394 0.440 2434.460 o
-2 1 3 450.055 504.740 7.138 0.809 o
-2 1 4 947.054 957.124 12.878 0.216 o
-2 1 5 623.351 676.021 9.554 0.452 o
-2 1 6 89.492 84.927 2.710 12.259 o
-2 1 7 28.342 29.202 1.497 53.073 o
-2 1 8 111.590 114.308 2.834 8.731 o
-2 1 9 5.811 5.697 1.383 188.380 o
-2 1 10 0.621 2.331 1.605 238.547 o
-2 1 11 1.744 0.041 1.688 218.520 o
-2 2 1 564.810 617.247 8.500 0.543 o
-2 2 2 348.516 360.111 6.167 1.333 o
-2 2 3 27.540 21.826 1.434 60.231 o
-2 2 4 510.692 528.311 7.625 0.677 o
-2 2 5 36.208 34.854 1.730 40.107 o
-2 2 6 45.814 49.474 2.255 27.190 o
-2 2 7 22.732 22.570 1.566 65.358 o
-2 2 8 12.381 13.970 1.212 121.095 o
-2 2 9 18.538 16.399 1.649 78.287 o
-2 2 10 20.425 19.613 1.935 64.057 o
-2 2 11 103.255 106.314 6.004 6.978 o
-2 3 1 623.956 662.304 9.248 0.459 o
-2 3 2 140.970 170.948 3.597 5.482 o
-2 3 3 114.717 128.843 5.428 6.444 o
-2 3 4 30.530 23.733 2.195 44.874 o
-2 3 5 3.348 2.797 0.944 377.544 o
-2 3 6 2.112 2.091 1.164 351.843 o
-2 3 7 264.108 266.622 4.496 2.224 o
-2 3 8 54.114 51.900 2.544 22.608 o
-2 3 9 4.079 4.415 1.592 183.027 o
-2 3 10 0.035 -2.632 1.738 230.970 o
-2 3 11 32.098 33.442 2.428 37.357 o
-2 4 1 221.640 219.164 3.983 3.026 o
-2 4 2 168.487 182.233 3.540 4.491 o
-2 4 3 153.800 153.141 3.223 5.454 o
-2 4 4 620.336 669.028 11.060 0.449 o
-2 4 5 619.226 600.796 36.507 0.262 o
-2 4 6 0.795 -0.289 1.921 181.618 o
-2 4 7 0.254 -0.304 1.233 445.082 o
-2 4 8 15.514 12.821 1.948 79.952 o
-2 4 9 2.747 2.332 2.136 130.679 o
-2 4 10 58.663 53.159 3.297 18.639 o
-2 4 11 39.270 30.046 2.448 33.841 o
-2 5 1 1.005 0.733 0.860 691.071 o
-2 5 2 668.443 665.509 9.759 0.420 o
-2 5 3 54.295 57.647 2.227 22.778 o
-2 5 4 11.474 9.856 1.748 105.392 o
-2 5 5 15.100 16.644 1.918 77.538 o
-2 5 6 166.203 184.090 4.930 4.206 o
-2 5 7 275.462 295.651 6.466 1.889 o
-2 5 8 93.435 105.337 4.598 8.851 o
-2 5 9 0.960 1.265 1.918 174.974 o
-2 5 10 33.862 32.319 3.053 31.015 o
-2 5 11 0.311 2.117 2.402 115.687 o
-2 6 1 10.067 6.080 1.121 172.282 o
-2 6 2 58.090 55.026 3.290 18.583 o
-2 6 3 10.188 12.130 1.890 98.263 o
-2 6 4 220.378 223.654 4.632 2.941 o
-2 6 5 8.312 6.467 1.415 157.326 o
-2 6 6 0.792 -0.859 2.828 85.705 o
-2 6 7 57.865 56.519 4.739 14.130 o
-2 6 8 5.792 2.031 2.188 113.013 o
-2 6 9 5.408 -0.154 2.116 125.405 o
-2 6 10 12.387 11.219 2.410 71.505 o
-2 7 1 246.549 265.581 7.908 2.093 o
-2 7 2 1.814 4.560 2.087 134.947 o
-2 7 3 30.500 27.388 2.141 43.947 o
-2 7 4 3.173 0.459 2.095 137.884 o
-2 7 5 17.742 14.133 2.732 53.104 o
-2 7 6 1.411 3.108 2.503 101.939 o
-2 7 7 5.855 4.526 1.540 172.535 o
-2 7 8 13.239 11.807 1.760 95.156 o
-2 7 9 0.075 -1.487 2.196 144.483 o
-2 7 10 21.754 23.417 3.934 29.672 o
-2 8 1 10.314 7.870 1.991 99.416 o
-2 8 2 273.168 273.126 14.390 1.351 o
-2 8 3 71.273 76.395 5.175 10.818 o
-2 8 4 127.526 130.500 5.287 5.996 o
-2 8 5 403.127 438.450 7.176 0.993 o
-2 8 6 21.050 17.647 1.782 68.244 o
-2 8 7 22.992 18.908 1.899 61.339 o
-2 8 8 18.572 18.073 1.972 67.629 o
-2 8 9 5.792 4.855 1.956 126.462 o
-2 9 1 216.008 219.765 5.315 2.943 o
-2 9 2 83.919 94.717 4.586 9.939 o
-2 9 3 79.768 92.179 5.286 9.411 o
-2 9 4 208.636 230.685 8.035 2.572 o
-2 9 5 15.917 15.966 2.532 58.890 o
-2 9 6 15.254 15.394 2.877 51.815 o
-2 9 7 197.365 215.144 5.176 3.269 o
-2 9 8 4.016 4.816 2.175 115.662 o
-2 10 2 22.033 11.424 3.279 40.559 o
-2 10 3 17.586 19.489 2.803 49.130 o
-2 10 4 2.661 -0.143 4.873 28.793 o
-1 -9 1 11.863 12.070 2.734 61.228 o
-1 -9 2 48.717 47.410 4.360 17.316 o
-1 -8 1 24.967 28.212 2.472 44.108 o
-1 -8 2 82.044 93.593 4.428 10.347 o
-1 -8 3 0.307 1.056 2.413 116.704 o
-1 -8 4 64.622 76.512 5.036 11.651 o
-1 -7 1 17.703 13.307 2.387 61.987 o
-1 -7 2 274.544 269.104 9.863 1.719 o
-1 -7 3 260.519 237.236 7.009 2.183 o
-1 -7 4 19.567 13.088 3.263 41.872 o
-1 -7 5 3.799 6.600 2.214 109.901 o
-1 -7 6 183.209 210.781 6.482 3.288 o
-1 -6 1 170.397 176.858 4.575 4.279 o
-1 -6 2 218.766 200.441 5.035 3.077 o
-1 -6 3 352.741 361.811 7.397 1.273 o
-1 -6 4 1.533 0.663 2.982 75.459 o
-1 -6 5 4.198 3.768 1.691 170.441 o
-1 -6 6 0.063 -3.584 1.743 229.167 o
-1 -6 7 10.037 12.249 2.270 80.595 o
-1 -5 1 1.698 0.822 1.121 416.929 o
-1 -5 2 187.872 184.388 5.096 3.714 o
-1 -5 3 514.536 525.558 9.201 0.657 o
-1 -5 4 184.828 186.892 4.961 3.775 o
-1 -5 5 118.043 125.241 3.676 7.470 o
-1 -5 6 17.388 14.761 2.034 71.159 o
-1 -5 7 0.678 -0.534 1.633 249.499 o
-1 -5 8 18.586 16.434 2.259 61.695 o
-1 -4 1 162.631 184.725 3.950 4.522 o
-1 -4 2 92.819 91.139 3.113 11.095 o
-1 -4 3 321.671 324.769 6.130 1.542 o
-1 -4 4 39.444 38.788 2.055 34.133 o
-1 -4 5 1723.630 1758.570 21.123 0.068 o
-1 -4 6 83.083 75.664 2.440 14.081 o
-1 -4 7 41.781 46.124 2.748 26.883 o
-1 -4 8 3.162 5.099 1.722 169.307 o
-1 -4 9 0.209 -2.963 1.879 195.607 o
-1 -3 1 1.426 3.039 0.873 517.817 o
-1 -3 2 487.741 502.531 8.152 0.729 o
-1 -3 3 106.846 106.131 2.254 9.790 o
-1 -3 4 47.114 44.312 1.481 31.318 o
-1 -3 5 260.213 262.079 4.398 2.287 o
-1 -3 6 2.204 2.601 0.980 420.236 o
-1 -3 7 400.435 417.843 6.935 1.034 o
-1 -3 8 0.095 -1.373 1.574 279.923 o
-1 -3 9 57.510 58.680 2.970 19.336 o
-1 -2 1 2825.900 2441.400 34.518 0.029 o
-1 -2 2 994.078 900.711 11.836 0.213 o
-1 -2 3 219.098 241.467 3.353 2.962 o
-1 -2 4 16.668 13.969 0.733 117.835 o
-1 -2 5 13.234 11.619 0.746 146.243 o
-1 -2 6 25.116 23.155 1.317 64.972 o
-1 -2 7 56.562 62.347 2.932 19.250 o
-1 -2 8 939.622 986.342 12.699 0.215 o
-1 -2 9 6.933 5.680 1.379 177.141 o
-1 -2 10 5.521 7.640 1.860 129.304 o
-1 -1 1 259.549 235.019 3.906 2.463 o
-1 -1 2 11.046 11.175 1.077 145.797 o
-1 -1 3 1225.030 1156.890 13.635 0.140 o
-1 -1 4 22.248 22.799 0.849 78.942 o
-1 -1 5 20.996 21.645 0.922 82.607 o
-1 -1 6 151.612 135.987 2.297 6.115 o
-1 -1 7 11.866 9.497 0.916 156.476 o
-1 -1 8 99.951 105.288 2.650 10.163 o
-1 -1 9 162.509 175.585 3.619 4.726 o
-1 -1 10 10.100 7.005 1.706 120.015 o
-1 0 1 379.051 352.658 4.288 1.272 o
-1 0 2 472.719 446.313 5.467 0.843 o
-1 0 3 362.065 350.352 4.505 1.342 o
-1 0 4 1891.470 1823.770 19.612 0.060 o
-1 0 5 283.297 305.494 3.643 1.947 o
-1 0 6 333.040 358.514 4.285 1.462 o
-1 0 7 44.196 42.022 1.462 33.736 o
-1 0 8 12.079 9.686 0.974 150.267 o
-1 0 9 12.421 12.583 1.251 122.480 o
-1 0 10 130.813 140.930 3.258 6.626 o
-1 0 11 75.096 66.975 2.577 15.873 o
-1 1 1 2893.510 2498.780 35.065 0.027 o
-1 1 2 1370.620 1297.350 18.609 0.110 o
-1 1 3 5.083 9.406 0.678 278.977 o
-1 1 4 224.434 209.316 3.424 3.114 o
-1 1 5 23.230 19.885 0.903 79.306 o
-1 1 6 874.824 915.719 9.712 0.251 o
-1 1 7 0.216 1.253 0.721 1018.990 o
-1 1 8 120.204 122.759 2.476 8.050 o
-1 1 9 64.823 62.950 4.061 14.550 o
-1 1 10 0.888 1.100 1.267 369.911 o
-1 1 11 57.355 56.700 2.761 20.286 o
-1 2 1 1827.260 1661.750 21.157 0.066 o
-1 2 2 60.002 56.383 2.619 20.102 o
-1 2 3 876.377 829.681 12.435 0.260 o
-1 2 4 110.752 127.511 2.491 8.517 o
-1 2 5 15.590 20.764 1.303 90.727 o
-1 2 6 56.420 54.145 1.674 24.364 o
-1 2 7 418.407 421.959 5.431 1.005 o
-1 2 8 244.020 255.013 4.192 2.502 o
-1 2 9 47.695 46.839 2.180 27.309 o
-1 2 10 0.237 -0.306 1.263 426.068 o
-1 2 11 10.604 6.277 1.613 125.924 o
-1 3 1 73.583 77.325 1.621 16.703 o
-1 3 2 235.273 206.818 3.442 2.971 o
-1 3 3 33.655 38.155 1.782 40.398 o
-1 3 4 13.428 15.908 1.460 100.699 o
-1 3 5 359.398 363.514 7.454 1.242 o
-1 3 6 170.521 179.284 4.250 4.323 o
-1 3 7 0.333 -0.723 1.263 420.923 o
-1 3 8 41.488 42.656 2.115 31.530 o
-1 3 9 0.114 1.054 1.234 423.830 o
-1 3 10 4.903 6.910 1.704 150.858 o
-1 3 11 4.590 4.435 1.705 162.405 o
-1 3 12 2.536 0.477 1.896 168.529 o
-1 4 1 260.099 238.239 3.611 2.459 o
-1 4 2 31.818 35.310 1.650 44.368 o
-1 4 3 298.162 305.812 4.897 1.788 o
-1 4 4 59.314 69.232 2.522 18.980 o
-1 4 5 94.514 103.859 3.191 10.247 o
-1 4 6 107.142 129.067 7.907 5.121 o
-1 4 7 19.403 20.355 1.631 72.451 o
-1 4 8 43.275 42.756 2.029 31.073 o
-1 4 9 7.644 7.105 2.064 105.523 o
-1 4 10 139.201 133.490 3.790 6.199 o
-1 4 11 3.980 3.257 1.594 189.923 o
-1 4 12 15.366 8.716 2.970 52.905 o
-1 5 1 135.995 143.019 3.089 6.405 o
-1 5 2 5.068 4.126 0.888 310.062 o
-1 5 3 107.680 105.475 2.842 9.355 o
-1 5 4 175.270 183.486 3.598 4.292 o
-1 5 5 65.482 84.087 3.573 14.080 o
-1 5 6 0.006 0.224 1.488 312.284 o
-1 5 7 0.023 0.481 1.188 477.862 o
-1 5 8 18.578 18.339 2.211 61.468 o
-1 5 9 4.914 3.738 1.688 164.838 o
-1 5 10 56.364 46.953 4.990 14.193 o
-1 5 11 88.144 84.582 3.398 11.577 o
-1 6 1 48.067 53.093 2.447 24.774 o
-1 6 2 49.913 45.323 2.465 25.425 o
-1 6 3 0.404 2.578 1.126 435.785 o
-1 6 4 446.849 446.736 12.419 0.776 o
-1 6 5 77.927 80.726 2.543 14.329 o
-1 6 6 14.700 14.796 1.193 108.964 o
-1 6 7 328.974 339.618 6.959 1.436 o
-1 6 8 2.644 1.510 1.762 184.589 o
-1 6 9 146.180 145.007 4.712 5.356 o
-1 6 10 13.247 14.191 2.154 76.093 o
-1 6 11 5.215 6.490 2.258 102.000 o
-1 7 1 188.020 201.368 4.893 3.592 o
-1 7 2 33.421 33.896 2.510 35.604 o
-1 7 3 2.167 2.502 3.467 55.001 o
-1 7 4 17.652 24.818 7.210 11.826 o
-1 7 5 243.901 246.153 4.968 2.488 o
-1 7 6 26.840 30.244 1.882 49.349 o
-1 7 7 73.133 70.687 2.689 15.682 o
-1 7 8 20.407 17.015 1.604 74.546 o
-1 7 9 68.561 57.201 5.359 11.521 o
-1 7 10 38.326 32.548 3.040 29.114 o
-1 7 11 16.843 17.230 3.091 45.327 o
-1 8 1 7.923 6.083 1.319 172.616 o
-1 8 2 453.879 477.066 10.204 0.780 o
-1 8 3 7.055 2.448 2.341 97.131 o
-1 8 4 33.857 32.798 2.544 35.368 o
-1 8 5 17.089 17.575 2.000 70.030 o
-1 8 6 0.118 0.917 1.846 198.592 o
-1 8 7 1.510 1.128 1.851 182.081 o
-1 8 8 62.891 62.090 4.184 14.570 o
-1 8 9 2.223 3.221 1.499 231.650 o
-1 8 10 2.800 0.475 2.195 128.885 o
-1 9 1 70.577 55.768 5.728 10.696 o
-1 9 2 29.887 29.344 2.331 41.423 o
-1 9 3 2.185 5.274 2.004 140.049 o
-1 9 4 66.306 68.517 3.858 14.437 o
-1 9 5 0.367 2.123 1.971 167.726 o
-1 9 6 47.268 47.182 3.084 23.104 o
-1 9 7 21.500 17.191 2.532 51.618 o
-1 9 8 1.065 2.354 2.434 109.726 o
-1 9 9 0.001 -2.604 3.551 55.417 o
-1 10 1 20.030 18.944 3.647 34.493 o
-1 10 2 30.368 29.584 2.296 41.354 o
-1 10 3 1.911 1.845 2.536 99.910 o
-1 10 4 66.185 75.198 4.614 12.403 o
-1 10 5 233.226 236.967 7.686 2.351 o
-1 10 6 7.578 1.376 2.560 84.560 o
-1 10 7 173.031 180.767 6.163 3.787 o
0 -9 1 1.222 -1.292 2.112 148.705 o
0 -9 2 4.205 4.437 2.881 72.717 o
0 -9 3 4.777 0.654 2.680 85.039 o
0 -8 1 82.005 76.173 2.569 14.021 o
0 -8 2 58.862 53.805 3.690 17.271 o
0 -8 3 12.072 6.469 2.917 59.117 o
0 -8 4 14.678 1.971 2.626 67.894 o
0 -7 1 15.681 17.888 1.376 92.667 o
0 -7 2 95.368 101.435 3.970 9.499 o
0 -7 3 125.773 121.979 6.087 5.758 o
0 -7 4 2.299 6.471 2.248 113.119 o
0 -7 5 16.494 16.450 2.053 70.686 o
0 -7 6 5.698 -0.282 1.938 142.191 o
0 -6 1 110.908 103.735 2.519 9.383 o
0 -6 2 69.139 75.757 2.788 15.742 o
0 -6 3 9.254 5.292 1.676 131.134 o
0 -6 4 11.652 14.645 1.986 85.757 o
0 -6 5 2.418 1.261 1.645 210.740 o
0 -6 6 0.286 0.870 1.670 238.603 o
0 -6 7 3.536 6.737 1.972 131.761 o
0 -5 1 417.295 435.183 5.997 0.981 o
0 -5 2 539.656 569.895 15.699 0.522 o
0 -5 3 3.212 5.016 1.559 194.411 o
0 -5 4 130.667 127.486 3.766 6.721 o
0 -5 5 274.697 266.362 5.106 2.094 o
0 -5 6 282.588 275.593 5.486 1.972 o
0 -5 7 7.523 9.104 1.710 127.425 o
0 -5 8 1.446 2.107 1.840 179.964 o
0 -4 1 584.955 624.411 9.942 0.508 o
0 -4 2 18.070 10.794 1.186 103.510 o
0 -4 3 118.895 114.750 3.102 8.064 o
0 -4 4 0.363 -1.297 1.025 622.698 o
0 -4 5 106.028 98.078 2.758 9.860 o
0 -4 6 344.918 347.164 5.923 1.385 o
0 -4 7 150.746 151.601 4.227 5.275 o
0 -4 8 0.119 -0.596 1.653 253.605 o
0 -4 9 9.116 5.429 1.849 117.973 o
0 -3 1 2838.740 2756.720 39.028 0.026 o
0 -3 2 405.662 380.743 5.469 1.104 o
0 -3 3 55.934 48.309 1.896 24.917 o
0 -3 4 231.027 237.553 3.589 2.808 o
0 -3 5 1.429 1.044 0.785 697.229 o
0 -3 6 67.794 64.347 2.489 17.721 o
0 -3 7 0.682 0.686 1.145 461.860 o
0 -3 8 211.988 212.500 4.625 3.143 o
0 -3 9 47.050 48.578 2.944 23.619 o
0 -3 10 5.856 3.822 1.801 144.275 o
0 -2 1 1805.410 1667.710 23.703 0.066 o
0 -2 2 173.615 171.807 2.689 4.651 o
0 -2 3 403.801 467.583 5.826 0.977 o
0 -2 4 456.194 500.655 6.367 0.810 o
0 -2 5 4.854 4.420 0.707 358.284 o
0 -2 6 214.240 213.399 3.416 3.242 o
0 -2 7 28.482 26.373 1.614 53.214 o
0 -2 8 708.908 737.365 10.551 0.365 o
0 -2 9 159.965 168.740 5.790 4.285 o
0 -2 10 56.698 49.581 2.940 20.752 o
0 -1 1 225.803 190.642 2.660 3.310 o
0 -1 2 491.996 509.746 5.247 0.745 o
0 -1 3 2065.180 1864.640 18.543 0.053 o
0 -1 4 7.997 9.257 0.510 237.011 o
0 -1 5 130.068 124.945 1.806 7.621 o
0 -1 6 0.028 0.002 0.508 2645.600 o
0 -1 7 165.363 163.958 2.627 5.025 o
0 -1 8 45.725 48.776 1.985 28.656 o
0 -1 9 3.544 1.598 1.247 287.557 o
0 -1 10 180.379 187.752 4.158 4.017 o
0 -1 11 15.853 15.603 2.133 70.276 o
0 0 1 25.882 14.772 1.156 74.671 o
0 0 2 328.041 285.257 2.826 1.732 o
0 0 3 428.830 415.258 4.112 1.004 o
0 0 4 410.028 447.254 4.791 1.003 o
0 0 5 30.799 37.920 0.986 49.573 o
0 0 6 127.341 128.587 1.949 7.630 o
0 0 7 0.179 0.603 0.604 1521.670 o
0 0 8 115.973 115.832 2.400 8.607 o
0 0 9 23.288 26.148 1.795 57.547 o
0 0 10 5.109 4.976 1.275 219.116 o
0 0 11 449.063 477.065 6.745 0.844 o
0 1 0 899.572 621.881 20.060 0.264 o
0 1 1 122.142 106.994 3.525 7.849 o
0 1 2 1643.640 1489.120 18.731 0.081 o
0 1 3 234.237 256.020 3.312 2.672 o
0 1 4 134.573 128.090 1.715 7.293 o
0 1 5 155.084 162.644 2.159 5.483 o
0 1 6 125.236 129.522 1.950 7.729 o
0 1 7 101.470 109.092 1.884 10.367 o
0 1 8 160.451 170.977 2.634 5.068 o
0 1 9 3.322 2.835 1.019 350.008 o
0 1 10 75.981 80.289 2.549 14.656 o
0 1 11 7.573 8.680 1.515 145.028 o
0 1 12 17.848 17.829 2.158 64.282 o
0 2 0 129.760 124.597 2.488 7.412 o
0 2 1 4.898 6.718 0.431 368.970 o
0 2 2 682.806 673.986 8.875 0.410 o
0 2 4 36.249 35.049 1.170 44.094 o
0 2 5 2.720 3.947 0.665 502.697 o
0 2 6 475.634 466.296 5.614 0.814 o
0 2 7 0.179 0.336 0.633 1490.590 o
0 2 8 267.405 284.357 5.542 2.052 o
0 2 9 294.143 320.587 5.298 1.748 o
0 2 10 0.587 3.566 1.226 353.857 o
0 2 11 103.638 119.514 3.483 8.664 o
0 2 12 5.280 8.679 1.930 121.876 o
0 3 0 17.777 14.663 1.371 91.308 o
0 3 1 251.909 283.493 4.232 2.275 o
0 3 2 657.810 649.482 7.936 0.443 o
0 3 3 87.690 102.972 2.149 11.972 o
0 3 4 330.025 338.649 5.085 1.503 o
0 3 5 24.985 20.333 1.127 71.024 o
0 3 6 22.238 15.942 0.974 86.192 o
0 3 7 2.869 1.441 0.807 509.750 o
0 3 8 4.461 3.355 1.136 274.900 o
0 3 9 62.737 55.678 2.288 20.440 o
0 3 10 1.753 2.708 1.444 258.363 o
0 3 11 11.635 8.235 1.517 122.146 o
0 3 12 27.289 30.303 2.093 46.136 o
0 4 0 3842.260 3821.480 48.202 0.014 o
0 4 1 2734.210 2718.210 34.784 0.028 o
0 4 2 0.673 0.637 0.519 1505.900 o
0 4 3 32.574 35.449 1.149 47.783 o
0 4 4 178.131 168.031 3.567 4.419 o
0 4 5 1203.120 1234.590 16.416 0.135 o
0 4 6 3.914 8.141 1.036 256.645 o
0 4 7 2.336 -0.778 0.926 528.668 o
0 4 8 88.858 97.438 4.998 8.981 o
0 4 9 321.046 317.932 5.050 1.607 o
0 4 10 5.665 5.205 1.509 175.226 o
0 4 11 90.322 94.629 3.275 10.989 o
0 4 12 38.294 30.134 2.010 38.024 o
0 5 0 68.971 78.940 1.901 17.074 o
0 5 1 74.427 71.628 1.801 16.858 o
0 5 2 508.357 518.900 6.864 0.696 o
0 5 3 40.482 51.631 1.905 30.898 o
0 5 4 126.331 126.826 2.397 7.582 o
0 5 5 208.983 219.108 4.468 3.159 o
0 5 6 5.843 4.570 1.811 140.872 o
0 5 7 19.984 28.223 2.195 53.441 o
0 5 8 103.268 111.226 3.139 9.255 o
0 5 9 19.724 17.185 1.900 68.192 o
0 5 10 2.065 -0.735 1.287 338.402 o
0 5 11 10.360 11.182 1.857 101.047 o
0 5 12 3.307 2.092 1.704 184.878 o
0 6 0 0.835 -0.221 0.768 926.312 o
0 6 1 0.172 1.550 0.833 793.357 o
0 6 2 11.485 13.327 0.991 140.266 o
0 6 3 920.001 1000.130 13.906 0.216 o
0 6 4 471.020 499.508 7.760 0.766 o
0 6 5 23.650 31.908 3.127 35.525 o
0 6 6 22.615 21.714 1.801 61.702 o
0 6 7 1.278 2.523 1.253 336.556 o
0 6 8 216.131 206.763 4.663 3.119 o
0 6 9 9.763 8.828 1.641 121.697 o
0 6 10 0.034 -2.927 1.700 241.407 o
0 6 11 5.136 6.189 1.696 152.653 o
0 6 12 17.061 16.052 2.005 71.397 o
0 7 0 163.989 155.956 3.500 5.000 o
0 7 1 1.050 -0.785 0.915 669.961 o
0 7 2 117.433 116.635 3.662 7.757 o
0 7 3 54.907 55.038 2.229 22.990 o
0 7 4 87.789 86.689 3.636 11.195 o
0 7 5 6.923 6.367 1.801 130.406 o
0 7 6 26.932 22.618 2.935 38.617 o
0 7 7 10.446 9.776 0.856 172.348 o
0 7 8 12.386 13.580 1.257 119.780 o
0 7 9 1.100 4.319 1.937 158.636 o
0 7 10 70.349 59.752 3.780 14.667 o
0 7 11 0.233 2.686 1.974 166.096 o
0 8 0 0.625 0.132 1.105 515.090 o
0 8 1 18.874 21.599 2.703 48.824 o
0 8 2 47.286 47.181 2.107 27.751 o
0 8 3 0.997 1.035 1.465 285.747 o
0 8 4 28.887 27.502 2.544 40.387 o
0 8 5 5.496 4.081 1.636 165.248 o
0 8 6 51.624 57.296 5.048 13.976 o
0 8 7 0.322 1.465 2.081 153.958 o
0 8 8 17.375 18.102 2.693 52.234 o
0 8 9 0.492 -1.019 2.106 154.177 o
0 8 10 192.185 181.398 5.883 3.502 o
0 8 11 1.249 -0.013 1.370 329.262 o
0 9 0 1.566 2.231 1.377 287.583 o
0 9 1 8.554 7.172 1.513 143.594 o
0 9 2 3.879 1.515 1.320 260.809 o
0 9 3 106.904 111.940 3.753 8.494 o
0 9 4 248.148 280.065 6.145 2.183 o
0 9 5 87.986 89.791 4.137 10.385 o
0 9 6 0.073 4.150 2.324 119.975 o
0 9 7 86.836 81.622 4.700 10.073 o
0 9 8 18.739 16.442 3.036 45.130 o
0 9 9 0.537 3.835 2.604 96.128 o
0 9 10 6.075 4.275 2.650 80.126 o
0 10 0 1.987 0.816 2.041 150.567 o
0 10 1 5.939 7.438 1.786 134.202 o
0 10 2 40.139 40.608 3.071 26.613 o
0 10 3 17.200 21.389 2.415 56.566 o
0 10 4 7.705 15.287 4.529 29.321 o
0 10 5 94.029 101.276 5.097 8.426 o
0 10 6 3.457 1.474 2.598 92.009 o
0 10 7 0.315 3.815 2.514 103.390 o
0 10 8 22.925 31.222 3.169 35.628 o
1 -10 0 2.785 1.232 2.052 142.845 o
1 -9 0 0.050 0.481 1.549 284.475 o
1 -9 1 19.446 16.189 1.700 75.009 o
1 -9 2 25.674 24.930 1.800 55.066 o
1 -8 0 54.202 54.645 2.522 22.249 o
1 -8 1 183.908 160.900 4.286 4.215 o
1 -8 2 57.709 53.364 3.098 19.489 o
1 -8 3 4.439 5.184 2.915 70.298 o
1 -8 4 6.514 6.537 2.741 73.113 o
1 -7 0 118.338 128.286 5.500 6.265 o
1 -7 1 35.276 29.987 2.287 37.722 o
1 -7 2 0.631 1.264 1.019 543.301 o
1 -7 3 26.260 32.694 2.011 47.010 o
1 -7 4 11.933 7.903 2.176 85.380 o
1 -7 5 15.680 11.324 1.871 84.212 o
1 -7 6 30.115 28.168 2.290 42.187 o
1 -6 0 344.916 359.365 6.092 1.353 o
1 -6 1 70.004 68.606 2.657 16.497 o
1 -6 2 1.318 2.468 1.258 334.292 o
1 -6 3 26.987 24.511 1.871 52.596 o
1 -6 4 206.260 189.573 6.607 3.083 o
1 -6 5 8.710 4.901 1.706 132.730 o
1 -6 6 23.481 19.924 1.813 61.514 o
1 -6 7 1.591 4.329 2.262 119.060 o
1 -5 0 79.423 85.719 2.418 13.908 o
1 -5 1 417.482 432.690 6.777 0.970 o
1 -5 2 198.543 199.518 5.282 3.358 o
1 -5 3 202.617 189.441 5.260 3.377 o
1 -5 4 85.578 97.242 2.509 12.215 o
1 -5 5 10.703 9.345 1.407 131.573 o
1 -5 6 11.926 6.526 1.504 125.930 o
1 -5 7 4.253 5.703 1.590 175.334 o
1 -5 8 0.539 -1.224 1.549 279.048 o
1 -4 0 532.248 615.841 8.718 0.579 o
1 -4 1 375.155 362.783 5.642 1.237 o
1 -4 2 47.401 37.364 1.743 31.845 o
1 -4 3 575.440 598.185 8.664 0.540 o
1 -4 4 31.720 28.154 1.297 51.714 o
1 -4 5 73.826 77.116 1.941 16.233 o
1 -4 6 1.231 -0.244 1.015 548.968 o
1 -4 7 127.931 125.906 5.475 5.962 o
1 -4 8 13.370 9.064 1.440 116.201 o
1 -4 9 0.021 -0.458 1.627 263.724 o
1 -3 0 116.642 116.994 2.090 8.666 o
1 -3 1 0.006 0.983 0.649 1347.350 o
1 -3 2 359.058 358.293 5.365 1.317 o
1 -3 3 1264.480 1342.750 17.557 0.120 o
1 -3 4 26.139 24.950 1.113 64.497 o
1 -3 5 24.792 26.273 1.168 64.982 o
1 -3 6 4.507 4.295 1.274 234.174 o
1 -3 7 3.861 0.928 1.136 323.235 o
1 -3 8 127.016 129.178 3.175 7.143 o
1 -3 9 54.317 49.882 4.395 16.093 o
1 -3 10 0.503 -1.397 2.068 159.699 o
1 -2 0 1156.720 1071.610 12.621 0.158 o
1 -2 1 2151.310 1914.590 22.136 0.049 o
1 -2 2 770.706 767.691 10.134 0.324 o
1 -2 3 2751.280 2815.590 36.683 0.027 o
1 -2 4 401.422 418.998 4.951 1.067 o
1 -2 5 342.067 320.506 4.344 1.510 o
1 -2 6 74.593 77.016 1.748 16.366 o
1 -2 7 34.802 33.297 1.403 44.628 o
1 -2 8 62.323 60.890 2.451 19.444 o
1 -2 9 312.268 323.555 6.061 1.598 o
1 -2 10 0.013 1.241 2.183 142.970 o
1 -2 11 0.540 1.965 1.471 283.526 o
1 -1 0 80.284 80.714 1.913 14.808 o
1 -1 1 228.746 234.889 3.402 2.871 o
1 -1 2 193.604 225.721 3.208 3.514 o
1 -1 3 0.068 0.293 0.346 4316.380 o
1 -1 4 1453.750 1435.260 16.638 0.098 o
1 -1 5 275.461 252.370 3.439 2.245 o
1 -1 6 29.645 30.100 1.223 53.860 o
1 -1 7 432.824 433.468 6.253 0.939 o
1 -1 8 3.210 2.384 0.970 382.156 o
1 -1 9 4.236 4.543 1.090 277.428 o
1 -1 10 3.944 1.843 1.182 293.384 o
1 -1 11 317.034 328.078 5.812 1.571 o
1 0 0 1701.350 1429.310 20.079 0.079 o
1 0 1 1453.280 1281.650 15.623 0.105 o
1 0 2 15.542 11.601 0.531 137.559 o
1 0 3 319.338 307.848 3.050 1.710 o
1 0 4 1507.720 1487.140 15.086 0.092 o
1 0 5 27.456 22.383 0.657 69.623 o
1 0 6 380.871 402.617 4.952 1.160 o
1 0 7 325.035 352.367 4.116 1.522 o
1 0 8 174.755 173.106 2.633 4.611 o
1 0 9 16.620 14.712 1.094 104.712 o
1 0 10 2.703 2.320 1.003 392.024 o
1 0 11 353.379 375.432 6.000 1.287 o
1 0 12 291.554 322.628 9.241 1.536 o
1 1 0 392.476 379.876 5.045 1.157 o
1 1 1 534.822 497.464 5.838 0.680 o
1 1 2 1618.900 1391.770 12.998 0.088 o
1 1 3 3594.860 3272.120 37.257 0.018 o
1 1 4 172.893 143.146 1.579 5.287 o
1 1 5 107.865 122.821 2.048 9.129 o
1 1 6 8.493 8.306 0.626 226.567 o
1 1 7 17.595 16.133 1.140 96.782 o
1 1 8 2.152 0.032 0.659 808.369 o
1 1 9 22.258 20.040 1.753 64.630 o
1 1 10 12.554 12.961 1.327 116.878 o
1 1 11 50.078 51.348 2.087 25.850 o
1 1 12 10.300 11.190 1.366 131.339 o
1 2 0 285.701 285.231 4.089 1.987 o
1 2 1 297.062 271.873 3.513 1.975 o
1 2 2 282.789 255.993 3.340 2.166 o
1 2 4 127.827 109.203 2.267 8.088 o
1 2 5 0.299 0.635 0.393 2538.450 o
1 2 6 474.667 474.138 5.602 0.808 o
1 2 7 23.863 20.619 0.972 75.728 o
1 2 8 35.162 31.474 1.356 45.544 o
1 2 9 31.796 34.148 1.792 43.565 o
1 2 10 38.972 30.372 2.967 29.849 o
1 2 11 18.525 19.972 1.653 74.155 o
1 2 12 12.899 15.312 1.494 102.317 o
1 3 0 3209.840 2988.270 51.191 0.021 o
1 3 1 50.523 52.402 1.222 28.450 o
1 3 2 468.988 426.682 5.435 0.873 o
1 3 3 143.556 141.010 2.271 6.365 o
1 3 4 407.271 413.426 5.364 1.051 o
1 3 5 58.395 64.561 1.680 21.962 o
1 3 6 1123.200 1214.440 12.543 0.152 o
1 3 7 133.634 124.287 2.042 7.359 o
1 3 8 84.453 84.182 1.997 13.791 o
1 3 9 2.134 1.462 1.096 394.274 o
1 3 10 85.710 104.540 4.295 9.772 o
1 3 11 6.949 9.656 1.344 162.490 o
1 3 12 62.354 63.618 2.940 17.826 o
1 4 0 52.755 72.573 1.970 21.731 o
1 4 1 780.878 759.621 10.353 0.321 o
1 4 2 36.414 42.677 1.288 39.876 o
1 4 3 453.847 463.661 6.063 0.858 o
1 4 4 316.080 316.827 4.465 1.659 o
1 4 5 617.049 611.453 7.832 0.496 o
1 4 6 4112.520 4177.170 52.639 0.012 o
1 4 7 166.419 180.354 3.151 4.649 o
1 4 8 43.587 46.235 2.127 29.527 o
1 4 9 74.693 74.799 2.411 15.547 o
1 4 10 18.956 17.848 1.378 83.025 o
1 4 11 50.616 53.263 3.040 21.486 o
1 4 12 79.037 77.394 2.844 13.948 o
1 5 0 91.728 89.199 2.197 12.271 o
1 5 1 152.802 144.764 2.942 5.721 o
1 5 2 485.446 481.953 6.410 0.771 o
1 5 3 568.377 541.065 7.033 0.593 o
1 5 4 42.557 40.853 1.771 33.453 o
1 5 5 0.364 0.714 0.825 850.191 o
1 5 6 9.516 11.273 0.769 180.604 o
1 5 7 24.652 25.022 3.079 37.491 o
1 5 8 29.492 24.467 1.709 51.894 o
1 5 9 0.851 -0.460 1.029 569.770 o
1 5 10 2.934 1.953 1.423 248.751 o
1 5 11 135.171 135.992 3.354 6.499 o
1 5 12 0.492 2.672 1.599 239.442 o
1 6 0 111.188 113.541 2.968 8.703 o
1 6 1 215.982 203.878 3.932 3.234 o
1 6 2 35.865 42.114 1.683 37.972 o
1 6 3 309.319 314.196 4.664 1.701 o
1 6 4 29.821 27.222 1.583 51.442 o
1 6 5 14.316 11.728 1.356 110.168 o
1 6 6 10.607 13.377 1.306 127.079 o
1 6 7 80.776 71.494 2.872 14.079 o
1 6 8 17.993 13.796 1.488 88.103 o
1 6 9 5.288 5.212 1.669 158.289 o
1 6 10 0.629 -0.645 1.276 398.950 o
1 6 11 38.079 31.516 2.150 36.541 o
1 6 12 7.472 10.335 1.740 122.241 o
1 7 0 34.566 34.749 2.350 36.067 o
1 7 1 185.530 182.835 3.752 4.032 o
1 7 2 198.306 202.722 4.289 3.494 o
1 7 4 43.337 46.596 2.634 26.822 o
1 7 5 448.303 489.522 7.854 0.817 o
1 7 6 82.316 87.305 3.597 11.782 o
1 7 7 60.099 65.424 3.566 16.379 o
1 7 8 111.341 111.496 3.967 8.064 o
1 7 9 54.669 59.719 3.457 18.259 o
1 7 10 10.614 8.437 1.175 152.487 o
1 7 11 0.001 -0.298 1.204 482.201 o
1 7 12 0.053 -1.341 1.412 348.564 o
1 8 0 25.852 21.555 2.572 44.742 o
1 8 1 2.685 4.418 1.143 304.281 o
1 8 2 142.379 148.115 3.539 5.871 o
1 8 3 4.146 2.705 1.022 323.213 o
1 8 4 5.568 -0.031 2.693 83.377 o
1 8 5 13.609 52.858 4.120 25.884 o
1 8 6 70.737 79.635 4.739 11.491 o
1 8 7 19.083 18.379 4.974 22.282 o
1 8 8 86.606 94.900 10.777 4.185 o
1 8 9 1.727 1.376 1.821 184.072 o
1 8 10 32.300 32.492 2.488 36.954 o
1 8 11 29.198 28.221 2.604 39.210 o
1 9 0 141.136 123.194 7.245 4.708 o
1 9 1 179.099 182.060 5.509 3.816 o
1 9 2 12.194 11.893 1.459 114.029 o
1 9 3 34.444 35.333 1.937 39.565 o
1 9 4 70.049 81.786 4.740 11.452 o
1 9 5 11.370 11.681 1.958 91.903 o
1 9 6 7.077 8.167 2.139 100.900 o
1 9 7 4.562 6.581 3.470 51.172 o
1 9 8 67.171 63.038 4.340 13.576 o
1 9 9 0.972 -0.035 2.163 143.510 o
1 9 10 20.137 16.430 6.532 14.174 o
1 10 0 10.195 8.561 2.662 68.504 o
1 10 1 18.647 21.425 2.593 51.220 o
1 10 2 45.078 40.605 2.321 29.081 o
1 10 3 0.217 -0.963 1.397 350.369 o
1 10 4 16.909 15.205 2.354 62.637 o
1 10 5 7.098 7.981 2.332 89.899 o
1 10 6 1.206 2.155 2.267 125.007 o
1 10 7 1.729 0.630 2.705 90.503 o
1 10 8 17.208 23.528 4.130 29.271 o
1 10 9 0.036 2.545 4.008 42.828 o
1 11 4 0.392 0.415 2.517 108.287 o
1 11 5 16.279 14.777 2.848 51.748 o
1 11 6 15.155 11.914 3.047 49.841 o
2 -9 0 8.383 11.111 2.906 61.115 o
2 -9 1 3.442 4.208 3.082 65.773 o
2 -9 2 0.458 0.953 1.683 231.763 o
2 -8 0 41.514 41.519 3.822 21.772 o
2 -8 1 0.557 1.448 2.033 159.372 o
2 -8 2 0.238 4.544 2.879 79.548 o
2 -8 3 2.432 3.544 2.452 101.900 o
2 -8 4 39.434 49.844 2.550 28.220 o
2 -7 0 34.160 29.438 2.946 32.485 o
2 -7 1 0.200 1.920 1.656 235.154 o
2 -7 2 346.829 305.023 7.035 1.430 o
2 -7 3 10.278 5.676 1.845 112.647 o
2 -7 4 23.013 17.797 2.135 57.303 o
2 -7 5 21.289 21.787 1.375 72.756 o
2 -7 6 55.175 49.614 3.025 20.825 o
2 -6 0 308.909 320.866 6.423 1.607 o
2 -6 1 368.714 379.116 6.550 1.207 o
2 -6 2 25.451 22.768 1.995 53.575 o
2 -6 3 5.516 2.794 1.592 176.829 o
2 -6 4 109.368 93.674 3.357 9.288 o
2 -6 5 14.950 13.169 1.297 107.012 o
2 -6 6 10.394 7.110 1.853 108.688 o
2 -6 7 1.528 -1.221 1.853 187.098 o
2 -5 0 0.001 -0.280 0.925 816.537 o
2 -5 1 103.442 105.997 3.192 9.404 o
2 -5 2 1.125 0.054 1.175 434.595 o
2 -5 3 89.965 87.464 2.768 11.988 o
2 -5 4 97.702 93.038 2.938 10.697 o
2 -5 5 0.050 0.797 0.953 701.040 o
2 -5 6 5.523 4.350 1.133 243.532 o
2 -5 7 4.071 3.200 1.076 302.359 o
2 -5 8 57.420 51.927 2.797 20.765 o
2 -4 0 1.817 2.219 0.796 573.920 o
2 -4 1 58.546 61.102 2.120 21.310 o
2 -4 2 224.372 243.612 4.300 2.791 o
2 -4 3 20.043 20.925 1.316 77.876 o
2 -4 4 50.508 58.670 2.176 24.029 o
2 -4 5 28.842 26.111 1.396 55.684 o
2 -4 6 6.294 8.046 0.968 225.330 o
2 -4 7 21.086 13.785 1.142 89.023 o
2 -4 8 5.469 4.414 1.134 243.706 o
2 -4 9 34.750 27.661 1.983 41.933 o
2 -3 0 489.278 467.978 6.184 0.780 o
2 -3 1 415.935 369.646 5.562 1.087 o
2 -3 2 18.342 16.286 1.160 93.339 o
2 -3 3 3.959 1.819 0.716 466.639 o
2 -3 4 350.505 348.427 4.895 1.387 o
2 -3 5 1.002 0.932 0.657 969.324 o
2 -3 6 173.409 170.719 2.766 4.659 o
2 -3 7 11.492 8.037 1.139 149.963 o
2 -3 8 13.201 12.465 1.110 125.906 o
2 -3 9 32.620 28.054 2.368 39.454 o
2 -3 10 0.142 -0.681 3.118 71.669 o
2 -2 0 397.008 387.160 5.570 1.119 o
2 -2 1 1095.890 1105.130 13.162 0.166 o
2 -2 2 9.202 4.744 0.664 241.974 o
2 -2 3 786.872 850.552 11.264 0.294 o
2 -2 4 190.019 164.351 2.595 4.328 o
2 -2 5 537.261 590.796 7.444 0.598 o
2 -2 6 119.634 119.293 2.475 8.201 o
2 -2 7 4.648 3.505 0.673 396.732 o
2 -2 8 69.508 85.292 1.858 16.397 o
2 -2 9 25.784 26.060 1.382 60.431 o
2 -2 10 26.290 26.386 1.567 56.751 o
2 -2 11 12.741 11.795 1.595 104.824 o
2 -1 0 3.661 4.011 0.615 456.718 o
2 -1 1 2122.990 1967.730 22.717 0.049 o
2 -1 2 4.901 5.067 0.449 403.623 o
2 -1 3 955.650 948.116 10.387 0.219 o
2 -1 4 13.828 10.980 0.805 141.519 o
2 -1 5 120.669 123.961 2.156 8.119 o
2 -1 6 572.652 611.903 6.961 0.547 o
2 -1 7 244.184 236.966 3.097 2.681 o
2 -1 8 1.066 1.059 0.498 1240.990 o
2 -1 9 5.503 6.252 0.753 296.577 o
2 -1 10 4.332 5.228 1.215 240.978 o
2 -1 11 9.767 7.298 1.418 143.160 o
2 0 0 789.533 806.065 11.833 0.301 o
2 0 1 8.608 9.586 0.478 225.725 o
2 0 2 926.544 836.669 9.076 0.248 o
2 0 3 331.582 295.609 3.052 1.672 o
2 0 4 677.252 712.089 7.833 0.405 o
2 0 5 375.156 380.023 5.026 1.219 o
2 0 6 563.233 572.765 6.556 0.583 o
2 0 7 200.994 225.955 3.037 3.398 o
2 0 8 126.856 134.242 2.284 7.379 o
2 0 9 1.219 0.417 0.590 1109.730 o
2 0 10 22.724 21.233 1.134 74.905 o
2 0 11 0.893 -0.436 0.897 713.361 o
2 0 12 38.315 29.036 3.899 23.802 o
2 1 0 338.103 302.985 4.317 1.578 o
2 1 1 2090.940 1888.650 21.684 0.051 o
2 1 2 2496.140 2202.790 21.781 0.037 o
2 1 3 1.106 0.592 0.300 1905.520 o
2 1 4 375.337 356.875 3.866 1.286 o
2 1 5 614.913 646.751 7.972 0.481 o
2 1 6 518.741 492.880 9.148 0.675 o
2 1 7 85.320 83.808 1.430 14.233 o
2 1 8 16.063 18.085 0.778 109.546 o
2 1 9 44.066 41.510 1.253 34.932 o
2 1 10 15.779 14.852 1.050 109.536 o
2 1 11 4.668 3.809 1.373 216.448 o
2 1 12 25.488 27.924 3.361 33.052 o
2 2 0 32.357 34.616 1.166 48.354 o
2 2 1 1277.720 1217.670 15.654 0.127 o
2 2 2 1182.110 1143.600 13.380 0.148 o
2 2 3 4298.400 4014.080 39.543 0.012 o
2 2 4 1600.860 1588.970 16.494 0.081 o
2 2 5 311.533 311.789 3.332 1.739 o
2 2 6 22.034 24.198 0.700 79.755 o
2 2 7 74.941 72.699 1.180 17.416 o
2 2 8 82.742 84.204 1.386 14.653 o
2 2 9 65.221 62.969 1.256 20.985 o
2 2 10 528.145 557.469 7.390 0.633 o
2 2 11 0.833 0.955 1.151 441.649 o
2 2 12 10.284 9.150 1.058 161.433 o
2 3 0 4134.530 3993.000 56.249 0.013 o
2 3 1 442.640 416.946 5.995 0.939 o
2 3 2 30.629 29.966 1.234 52.571 o
2 3 3 79.724 99.739 1.506 13.806 o
2 3 4 916.068 915.203 10.159 0.236 o
2 3 5 681.601 667.457 7.080 0.421 o
2 3 6 727.226 777.308 8.810 0.349 o
2 3 7 20.315 18.977 0.884 89.280 o
2 3 8 215.835 228.957 3.254 3.111 o
2 3 9 12.373 11.373 0.758 153.438 o
2 3 10 4.251 3.993 0.746 381.595 o
2 3 11 22.842 21.924 2.004 57.323 o
2 3 12 70.733 77.494 2.202 16.374 o
2 3 13 0.484 2.292 1.207 393.031 o
2 4 0 642.578 675.804 9.904 0.435 o
2 4 1 285.327 316.457 4.955 1.835 o
2 4 2 834.539 808.954 10.982 0.283 o
2 4 3 4.215 2.616 0.647 453.524 o
2 4 4 408.870 401.936 5.408 1.062 o
2 4 5 656.363 679.618 8.550 0.429 o
2 4 6 4263.680 4144.330 41.145 0.012 o
2 4 7 161.286 183.310 2.640 4.850 o
2 4 8 37.260 36.985 1.389 40.888 o
2 4 9 215.646 222.624 3.426 3.146 o
2 4 10 1.453 0.897 0.961 537.222 o
2 4 11 2.090 0.972 1.077 417.544 o
2 4 12 13.062 14.184 1.174 118.930 o
2 4 13 13.229 13.617 1.305 113.202 o
2 5 0 18.156 14.928 1.069 99.092 o
2 5 1 111.214 118.446 2.651 8.719 o
2 5 2 136.215 141.008 2.603 6.609 o
2 5 3 54.836 56.034 1.635 24.709 o
2 5 4 91.662 89.384 2.067 12.389 o
2 5 5 1.496 0.065 0.724 846.100 o
2 5 6 202.545 195.179 3.360 3.614 o
2 5 7 5.802 6.185 0.673 303.733 o
2 5 8 9.875 13.533 0.922 155.823 o
2 5 9 673.222 699.749 7.934 0.412 o
2 5 10 3.185 3.183 0.977 364.065 o
2 5 11 19.575 17.651 1.283 84.125 o
2 5 12 0.379 -1.485 1.409 339.591 o
2 5 13 29.433 28.989 1.884 47.271 o
2 6 0 58.856 54.386 3.355 18.281 o
2 6 1 6.173 3.188 2.060 119.595 o
2 6 2 18.208 20.514 1.410 80.641 o
2 6 3 1011.320 1044.570 13.029 0.189 o
2 6 4 1.937 1.769 0.962 469.770 o
2 6 5 8.452 7.276 1.091 186.057 o
2 6 6 0.265 0.320 1.378 352.631 o
2 6 7 1.868 0.876 1.215 361.237 o
2 6 8 26.824 27.345 1.888 50.888 o
2 6 9 1263.840 1267.700 17.852 0.124 o
2 6 10 63.612 61.741 2.131 19.826 o
2 6 11 64.568 62.724 2.310 19.039 o
2 6 12 4.511 3.773 1.403 213.277 o
2 7 0 251.741 267.909 6.926 2.136 o
2 7 1 402.096 419.457 8.176 0.999 o
2 7 2 4.857 4.069 1.329 219.836 o
2 7 3 125.349 125.199 3.512 7.169 o
2 7 4 0.012 -0.864 0.773 1166.090 o
2 7 5 13.191 8.725 1.364 122.285 o
2 7 6 280.791 276.912 9.316 1.706 o
2 7 7 8.252 6.498 1.412 157.927 o
2 7 8 21.282 21.923 3.002 41.736 o
2 7 9 116.737 127.719 4.179 7.170 o
2 7 10 13.084 10.921 1.796 95.445 o
2 7 11 2.093 2.489 1.038 400.428 o
2 7 12 31.195 22.320 1.572 52.894 o
2 8 0 4.843 8.396 2.595 81.145 o
2 8 1 449.183 465.757 10.548 0.792 o
2 8 2 78.533 82.741 5.504 9.517 o
2 8 3 127.958 135.789 3.283 6.877 o
2 8 4 39.912 37.353 1.581 37.447 o
2 8 5 0.934 -0.233 2.028 162.725 o
2 8 6 413.907 439.077 19.218 0.670 o
2 8 7 71.936 82.263 3.671 13.160 o
2 8 8 49.430 54.690 4.272 16.907 o
2 8 9 46.138 42.614 3.154 23.793 o
2 8 10 5.558 4.222 1.920 132.696 o
2 8 11 2.142 0.252 1.835 183.063 o
2 8 12 95.726 89.949 3.736 10.188 o
2 9 0 90.150 88.650 5.040 9.138 o
2 9 1 138.858 136.783 4.421 5.877 o
2 9 2 48.015 50.480 3.744 19.580 o
2 9 3 82.156 88.008 2.926 12.698 o
2 9 4 0.424 -0.418 1.278 407.325 o
2 9 5 3.696 5.563 1.877 144.205 o
2 9 6 4.780 4.816 2.168 113.116 o
2 9 7 24.768 27.033 3.339 33.849 o
2 9 8 15.489 7.696 3.227 47.514 o
2 9 9 19.683 14.975 2.880 47.810 o
2 9 10 11.149 7.852 2.565 71.024 o
2 9 11 26.692 23.323 2.349 46.479 o
2 10 0 41.507 43.340 3.444 23.543 o
2 10 1 1.683 -2.853 2.210 133.989 o
2 10 2 20.132 14.315 2.462 56.285 o
2 10 3 13.146 11.626 2.006 84.977 o
2 10 4 45.400 47.354 4.881 15.932 o
2 10 5 16.623 15.042 2.381 62.464 o
2 10 6 16.699 19.304 3.176 43.156 o
2 10 7 0.056 -1.435 3.060 74.580 o
2 10 8 16.326 18.011 3.278 42.160 o
2 10 9 60.755 65.995 4.707 13.304 o
2 11 4 91.702 100.230 5.360 8.318 o
2 11 5 0.000 2.042 3.011 75.401 o
2 11 6 0.920 0.500 3.100 71.011 o
2 11 7 4.607 5.478 2.819 73.896 o
3 -9 0 18.219 21.702 3.454 37.228 o
3 -8 0 0.054 3.347 2.205 134.314 o
3 -8 1 11.702 7.946 2.995 56.485 o
3 -8 2 0.064 -0.674 3.335 62.783 o
3 -8 3 20.919 21.064 3.674 33.274 o
3 -7 0 42.549 42.559 2.854 26.665 o
3 -7 1 109.004 110.965 5.277 7.199 o
3 -7 2 64.009 52.787 4.315 14.714 o
3 -7 3 31.150 41.046 3.393 27.647 o
3 -7 4 4.029 2.707 2.264 112.420 o
3 -7 5 1.111 -0.096 2.246 132.745 o
3 -6 0 56.429 50.278 2.884 20.932 o
3 -6 1 457.431 475.129 7.923 0.812 o
3 -6 2 103.620 111.874 4.528 8.071 o
3 -6 3 29.205 25.662 2.589 40.290 o
3 -6 4 25.701 19.968 2.014 54.686 o
3 -6 5 34.922 29.811 2.145 39.371 o
3 -6 6 0.047 1.420 1.383 339.050 o
3 -6 7 16.239 20.521 1.893 71.825 o
3 -5 0 119.040 116.829 2.803 8.155 o
3 -5 1 173.056 165.723 3.373 4.624 o
3 -5 2 844.165 860.126 12.318 0.266 o
3 -5 3 121.927 120.506 4.489 6.902 o
3 -5 4 72.700 81.256 2.796 14.689 o
3 -5 5 330.775 307.977 6.226 1.534 o
3 -5 6 30.367 30.640 1.640 48.243 o
3 -5 7 50.919 45.289 2.314 25.734 o
3 -5 8 3.000 2.794 1.457 232.225 o
3 -4 0 28.304 18.006 1.158 66.279 o
3 -4 1 808.384 809.599 10.412 0.296 o
3 -4 2 92.905 83.974 2.479 12.164 o
3 -4 3 61.405 72.533 3.192 16.497 o
3 -4 4 586.527 600.258 8.833 0.526 o
3 -4 5 59.968 63.345 2.392 19.883 o
3 -4 6 24.817 23.686 1.615 60.144 o
3 -4 7 218.285 218.492 4.197 3.057 o
3 -4 8 10.675 8.261 1.381 136.914 o
3 -4 9 0.060 0.182 1.162 506.399 o
3 -3 0 139.064 127.994 2.851 6.699 o
3 -3 1 475.217 493.823 6.649 0.777 o
3 -3 2 111.090 92.239 2.131 10.107 o
3 -3 3 39.311 39.964 1.578 36.970 o
3 -3 4 4.387 5.435 0.817 328.616 o
3 -3 5 43.090 41.756 1.630 33.640 o
3 -3 6 83.871 81.956 2.958 12.818 o
3 -3 7 10.013 6.912 1.363 147.443 o
3 -3 8 3.793 4.656 1.009 308.470 o
3 -3 9 0.445 -0.612 0.938 722.305 o
3 -3 10 16.293 14.826 1.865 78.646 o
3 -2 0 265.122 273.699 4.460 2.185 o
3 -2 1 2446.640 2492.830 31.773 0.034 o
3 -2 2 387.687 392.685 4.875 1.155 o
3 -2 3 49.236 44.161 1.298 30.919 o
3 -2 4 42.180 47.780 1.534 32.876 o
3 -2 5 209.110 206.940 3.503 3.372 o
3 -2 6 21.057 19.120 1.048 83.488 o
3 -2 7 49.883 50.513 1.380 28.717 o
3 -2 8 1.532 0.912 0.505 1075.710 o
3 -2 9 11.488 9.102 0.939 159.901 o
3 -2 10 53.084 51.882 3.398 19.654 o
3 -1 0 246.993 243.981 4.127 2.535 o
3 -1 1 442.146 409.009 5.321 0.961 o
3 -1 2 647.932 704.304 7.990 0.429 o
3 -1 3 0.514 0.615 0.524 1602.850 o
3 -1 4 352.466 334.498 4.494 1.421 o
3 -1 5 5.684 4.236 0.505 374.741 o
3 -1 6 96.213 111.876 1.659 10.882 o
3 -1 7 8.169 7.797 0.820 216.214 o
3 -1 8 7.175 6.871 3.191 56.324 o
3 -1 9 103.839 109.919 4.054 8.518 o
3 -1 10 0.798 -1.595 1.809 203.909 o
3 -1 11 18.309 14.489 4.999 22.629 o
3 0 0 1312.150 1369.690 19.960 0.112 o
3 0 1 788.697 788.211 9.515 0.312 o
3 0 2 641.764 684.672 7.145 0.445 o
3 0 3 2.310 0.580 0.364 1073.970 o
3 0 4 601.960 619.870 6.997 0.511 o
3 0 5 49.398 57.955 1.183 27.794 o
3 0 6 646.946 703.411 9.744 0.422 o
3 0 7 126.935 116.175 2.770 7.700 o
3 0 8 0.388 1.197 1.178 441.766 o
3 0 9 79.473 85.901 3.747 11.944 o
3 0 10 17.599 17.290 2.203 63.954 o
3 0 11 1.684 4.007 2.454 103.340 o
3 0 12 0.011 -2.678 3.159 70.044 o
3 1 0 62.307 45.336 1.359 24.642 o
3 1 1 134.338 138.397 2.483 6.803 o
3 1 2 305.055 290.455 3.304 1.855 o
3 1 3 71.549 66.800 1.093 18.985 o
3 1 4 347.885 333.626 5.015 1.430 o
3 1 5 413.544 418.695 4.617 1.036 o
3 1 6 102.386 100.622 2.559 10.224 o
3 1 7 172.251 163.635 3.203 4.710 o
3 1 8 136.018 137.942 3.439 6.383 o
3 1 9 558.852 570.872 11.126 0.552 o
3 1 10 0.040 0.664 1.422 333.850 o
3 1 11 0.001 -3.163 1.704 240.630 o
3 1 12 31.302 33.320 2.481 37.397 o
3 2 0 389.304 400.228 5.836 1.118 o
3 2 1 275.788 244.448 3.430 2.279 o
3 2 2 33.864 51.580 1.238 38.663 o
3 2 3 115.979 108.198 1.712 9.217 o
3 2 4 22.682 25.537 0.800 75.178 o
3 2 5 66.800 75.553 1.190 18.964 o
3 2 6 704.822 713.460 7.413 0.387 o
3 2 7 8.692 6.861 1.069 188.054 o
3 2 8 0.406 0.651 1.198 442.589 o
3 2 9 302.682 310.253 7.063 1.639 o
3 2 10 7.869 3.967 4.748 28.407 o
3 2 11 81.731 92.580 4.057 10.928 o
3 2 12 2.410 3.280 2.202 123.431 o
3 3 0 1.276 -0.762 0.509 1368.810 o
3 3 1 2171.890 2193.470 33.858 0.043 o
3 3 2 6.357 5.887 0.738 281.482 o
3 3 3 41.490 42.212 1.509 35.137 o
3 3 4 75.353 74.836 1.478 16.774 o
3 3 5 522.955 564.668 5.750 0.648 o
3 3 6 95.566 100.837 1.760 11.486 o
3 3 7 33.979 30.757 1.046 49.617 o
3 3 8 4.609 4.104 0.465 442.245 o
3 3 9 35.074 29.538 1.178 48.060 o
3 3 10 32.207 28.944 2.796 35.067 o
3 3 11 100.456 99.226 4.099 9.075 o
3 3 12 189.086 178.439 6.769 3.387 o
3 3 13 24.006 21.872 3.534 33.290 o
3 4 0 18.602 23.385 1.126 82.688 o
3 4 1 628.726 692.939 8.779 0.445 o
3 4 2 622.538 627.890 8.013 0.482 o
3 4 3 13.686 11.300 0.847 139.451 o
3 4 4 13.461 9.365 0.677 156.758 o
3 4 5 7.979 4.494 0.626 275.645 o
3 4 6 812.928 871.590 9.948 0.282 o
3 4 7 87.979 93.487 1.734 12.889 o
3 4 8 20.201 15.438 1.038 91.866 o
3 4 9 238.701 230.548 3.558 2.757 o
3 4 10 5.353 3.281 0.688 366.154 o
3 4 11 26.335 25.302 1.206 62.614 o
3 4 12 18.817 16.597 1.544 80.372 o
3 4 13 52.714 45.066 3.943 18.381 o
3 5 0 139.227 133.185 3.015 6.509 o
3 5 1 5.292 4.341 0.927 291.656 o
3 5 2 71.132 65.888 2.323 17.217 o
3 5 3 570.528 581.086 8.484 0.556 o
3 5 4 32.597 27.718 1.331 50.589 o
3 5 5 83.951 87.271 1.664 13.971 o
3 5 6 55.403 58.135 1.679 24.002 o
3 5 7 135.143 126.042 2.588 7.041 o
3 5 8 381.116 395.648 5.412 1.162 o
3 5 9 482.294 475.641 6.084 0.787 o
3 5 10 229.140 230.041 3.958 2.850 o
3 5 11 3.268 2.551 0.975 374.274 o
3 5 12 8.979 9.157 1.112 168.782 o
3 5 13 3.906 1.909 0.946 371.971 o
3 6 0 527.063 568.968 14.119 0.555 o
3 6 1 47.291 42.256 2.756 25.515 o
3 6 2 50.463 56.143 2.200 24.393 o
3 6 3 88.084 73.706 2.432 13.508 o
3 6 4 94.575 89.158 3.938 10.092 o
3 6 5 496.113 508.129 6.799 0.725 o
3 6 6 4.297 3.869 1.082 286.047 o
3 6 7 22.666 16.192 1.387 75.650 o
3 6 8 7.918 8.611 1.114 182.188 o
3 6 9 715.261 696.642 10.323 0.375 o
3 6 10 139.885 144.953 2.823 6.280 o
3 6 11 0.004 1.766 1.056 542.153 o
3 6 12 50.348 49.825 2.529 24.203 o
3 6 13 16.858 14.967 1.479 90.053 o
3 7 0 48.416 46.618 3.067 22.926 o
3 7 1 203.442 233.789 5.822 2.947 o
3 7 2 31.464 28.403 2.017 44.071 o
3 7 3 38.098 36.798 2.187 34.585 o
3 7 4 6.957 5.252 1.270 193.486 o
3 7 5 352.689 355.522 5.560 1.344 o
3 7 6 30.035 25.490 1.777 49.797 o
3 7 7 148.769 154.403 3.434 5.549 o
3 7 8 0.385 -0.771 1.123 522.528 o
3 7 9 52.361 53.913 2.964 21.231 o
3 7 10 0.059 0.677 1.341 372.581 o
3 7 11 0.756 2.389 1.550 250.453 o
3 7 12 383.845 351.030 5.617 1.227 o
3 8 0 71.697 73.157 4.353 12.438 o
3 8 1 608.088 623.976 13.421 0.460 o
3 8 2 4.041 5.169 2.238 109.837 o
3 8 3 4.669 4.925 1.961 131.653 o
3 8 4 13.996 10.997 2.445 67.780 o
3 8 5 14.078 5.013 4.764 26.563 o
3 8 6 40.473 36.705 2.456 31.370 o
3 8 7 14.804 12.597 1.579 96.660 o
3 8 8 0.128 -0.148 1.723 233.589 o
3 8 9 55.999 58.916 3.018 19.507 o
3 8 10 15.949 10.175 1.821 86.952 o
3 8 11 7.730 6.121 1.715 134.117 o
3 8 12 212.537 181.547 4.565 3.390 o
3 9 0 0.022 -2.838 2.597 103.535 o
3 9 1 5.865 5.472 2.572 83.191 o
3 9 2 116.965 127.325 5.436 6.378 o
3 9 3 27.703 24.673 2.937 37.467 o
3 9 4 261.038 282.559 5.722 2.098 o
3 9 5 20.244 23.100 3.923 30.391 o
3 9 6 1.517 -3.115 1.849 187.985 o
3 9 7 0.627 1.393 5.225 25.355 o
3 9 8 116.719 120.347 4.672 7.039 o
3 9 9 39.246 42.348 2.707 28.940 o
3 9 10 20.620 18.458 2.795 46.990 o
3 9 11 17.536 18.546 2.659 52.554 o
3 10 1 22.817 18.303 3.561 34.374 o
3 10 2 22.482 18.198 2.489 50.873 o
3 10 3 18.038 15.223 2.137 66.650 o
3 10 4 189.640 185.528 4.804 3.726 o
3 10 5 22.959 24.461 3.223 36.848 o
3 10 6 213.189 239.290 6.655 2.676 o
3 10 7 0.616 -0.923 2.205 140.221 o
3 10 8 41.629 41.678 3.064 25.931 o
3 10 9 101.883 92.641 4.546 8.764 o
3 10 10 2.470 -2.492 2.309 120.052 o
3 11 4 24.346 18.534 2.652 46.110 o
3 11 5 31.725 29.069 4.007 24.927 o
3 11 6 17.276 14.992 3.759 35.272 o
4 -8 0 4.846 4.588 2.902 70.682 o
4 -8 1 0.395 -1.100 2.381 121.604 o
4 -8 2 0.022 3.245 2.527 104.180 o
4 -7 0 27.478 25.153 3.723 29.248 o
4 -7 1 1.647 -0.128 2.546 102.636 o
4 -7 2 13.267 7.217 2.429 72.871 o
4 -7 3 2.970 2.973 2.300 112.906 o
4 -7 4 114.197 120.696 6.382 5.994 o
4 -6 0 15.303 14.432 2.024 76.010 o
4 -6 1 145.852 156.426 4.190 5.370 o
4 -6 2 29.624 33.329 2.480 38.531 o
4 -6 3 4.149 1.398 2.738 82.458 o
4 -6 4 143.736 136.315 4.412 5.709 o
4 -6 5 1.328 2.332 1.561 238.185 o
4 -6 6 0.107 2.560 1.714 217.526 o
4 -5 0 176.501 189.638 6.135 3.649 o
4 -5 1 210.297 210.098 5.007 3.134 o
4 -5 2 347.368 354.407 6.461 1.341 o
4 -5 3 1.185 0.921 1.172 411.523 o
4 -5 4 0.176 0.386 1.410 339.181 o
4 -5 5 48.611 46.016 3.181 22.434 o
4 -5 6 13.708 11.242 1.971 85.478 o
4 -5 7 8.119 4.421 1.471 161.409 o
4 -4 0 8.559 9.422 1.886 109.314 o
4 -4 1 140.692 135.222 3.810 6.093 o
4 -4 2 642.839 636.596 8.669 0.457 o
4 -4 3 1.381 1.493 0.927 545.030 o
4 -4 4 278.942 287.846 4.702 1.998 o
4 -4 5 48.871 44.562 2.217 27.121 o
4 -4 6 65.372 65.693 2.520 18.023 o
4 -4 7 0.468 -0.100 1.342 369.021 o
4 -4 8 64.098 61.499 3.015 17.486 o
4 -3 0 691.701 756.011 12.168 0.363 o
4 -3 1 75.932 72.906 2.651 15.091 o
4 -3 2 336.719 356.802 6.901 1.365 o
4 -3 3 2.504 1.648 0.871 490.783 o
4 -3 4 115.087 120.624 2.648 8.373 o
4 -3 5 412.108 433.806 7.329 0.972 o
4 -3 6 17.904 18.974 1.650 76.729 o
4 -3 7 5.407 1.847 1.092 281.202 o
4 -3 8 322.261 326.037 4.952 1.581 o
4 -3 9 2.638 4.782 1.726 174.841 o
4 -2 0 9.326 5.113 0.974 201.599 o
4 -2 1 56.047 67.050 1.748 22.139 o
4 -2 2 210.070 207.648 3.375 3.364 o
4 -2 3 6.534 3.480 0.709 315.415 o
4 -2 4 202.699 186.885 3.115 3.722 o
4 -2 5 78.492 80.767 2.656 14.072 o
4 -2 6 11.500 11.726 0.930 149.545 o
4 -2 7 489.043 536.703 6.442 0.716 o
4 -2 8 94.167 92.535 2.289 11.701 o
4 -2 9 35.443 35.102 2.747 32.115 o
4 -2 10 82.130 86.305 4.814 10.102 o
4 -1 0 620.917 733.948 9.248 0.433 o
4 -1 1 732.159 766.211 9.562 0.347 o
4 -1 2 121.143 149.645 2.588 7.158 o
4 -1 3 18.037 17.779 0.901 98.814 o
4 -1 4 264.094 256.505 3.490 2.331 o
4 -1 5 92.351 100.500 4.111 9.620 o
4 -1 6 69.008 68.065 1.453 18.985 o
4 -1 7 63.646 60.272 1.521 21.368 o
4 -1 8 59.975 71.350 3.473 16.140 o
4 -1 9 0.080 -0.923 1.773 221.342 o
4 -1 10 9.069 8.338 2.531 75.661 o
4 -1 11 74.261 79.976 5.794 9.470 o
4 0 0 10.082 12.856 1.247 135.483 o
4 0 1 10.179 10.180 0.984 163.506 o
4 0 2 1196.650 1343.990 14.760 0.130 o
4 0 3 15.481 14.158 0.715 124.337 o
4 0 4 131.474 140.804 2.037 7.026 o
4 0 5 84.186 87.088 1.958 13.658 o
4 0 6 160.824 172.135 2.885 4.988 o
4 0 7 11.999 9.325 1.531 116.830 o
4 0 8 1.193 4.094 1.523 235.489 o
4 0 9 0.765 0.648 2.119 148.610 o
4 0 10 153.253 162.576 5.422 4.640 o
4 0 11 0.368 3.416 2.214 131.490 o
4 1 0 396.671 419.662 5.560 1.070 o
4 1 1 760.075 819.194 10.026 0.317 o
4 1 2 327.695 318.257 4.024 1.603 o
4 1 3 218.278 252.313 3.361 2.898 o
4 1 4 12.682 7.455 0.570 179.038 o
4 1 5 35.629 29.506 0.877 49.562 o
4 1 6 0.635 0.792 0.510 1507.660 o
4 1 7 24.071 19.560 1.345 69.887 o
4 1 8 33.385 39.580 2.286 35.842 o
4 1 9 15.253 12.115 1.594 95.306 o
4 1 10 8.682 4.654 1.622 141.163 o
4 1 11 3.800 3.790 1.886 148.274 o
4 1 12 5.359 4.364 2.433 93.513 o
4 2 0 2.864 4.372 0.806 417.816 o
4 2 1 146.033 131.279 2.680 6.356 o
4 2 2 369.514 375.769 6.453 1.213 o
4 2 3 219.387 243.955 3.032 2.966 o
4 2 4 88.277 89.289 1.645 13.209 o
4 2 5 1.450 5.510 0.550 608.204 o
4 2 6 216.331 215.405 2.563 3.269 o
4 2 7 139.009 147.852 2.728 6.285 o
4 2 8 146.652 153.712 4.346 5.334 o
4 2 9 18.435 22.947 2.098 60.898 o
4 2 10 17.901 17.023 2.100 66.355 o
4 2 11 0.838 1.713 1.867 183.004 o
4 2 12 4.495 1.510 2.196 118.698 o
4 3 0 23.738 21.890 1.632 62.985 o
4 3 1 28.449 44.361 1.573 43.984 o
4 3 2 1062.640 1098.720 13.284 0.173 o
4 3 3 1.809 1.429 0.680 724.619 o
4 3 4 494.645 513.305 7.116 0.720 o
4 3 5 14.528 13.306 0.730 132.096 o
4 3 6 484.215 500.163 5.601 0.765 o
4 3 7 113.933 114.830 1.807 9.076 o
4 3 8 47.038 49.278 1.731 29.051 o
4 3 9 60.890 63.196 3.676 16.132 o
4 3 10 0.030 0.323 1.586 273.782 o
4 3 11 4.275 5.532 1.980 130.273 o
4 3 12 59.525 52.174 3.382 18.285 o
4 3 13 0.309 -1.703 2.761 90.986 o
4 4 0 249.534 274.501 4.707 2.309 o
4 4 1 130.788 140.936 2.992 6.733 o
4 4 2 158.548 156.918 3.163 5.242 o
4 4 3 0.245 0.121 0.672 1365.910 o
4 4 4 108.990 116.700 2.119 9.246 o
4 4 5 48.071 48.061 1.433 30.021 o
4 4 6 8.646 6.715 0.688 231.487 o
4 4 7 0.049 0.278 0.650 1520.580 o
4 4 8 15.711 11.644 0.880 124.333 o
4 4 9 1.180 2.084 0.609 859.756 o
4 4 10 22.997 25.413 1.277 67.445 o
4 4 11 1.443 1.255 1.802 191.002 o
4 4 12 66.835 69.327 4.113 13.736 o
4 4 13 15.734 12.507 3.198 46.002 o
4 5 0 42.655 38.818 2.314 30.689 o
4 5 1 106.384 112.536 2.595 9.344 o
4 5 2 17.959 14.968 1.118 98.252 o
4 5 3 110.240 124.699 3.366 8.137 o
4 5 4 834.409 897.867 11.326 0.265 o
4 5 5 285.207 285.544 3.984 1.994 o
4 5 6 60.510 62.880 1.811 21.277 o
4 5 7 4.673 10.073 1.168 205.981 o
4 5 8 43.608 52.153 2.487 26.405 o
4 5 9 22.751 20.024 1.758 63.704 o
4 5 10 152.984 156.899 3.137 5.440 o
4 5 11 0.560 -0.193 0.810 912.659 o
4 5 12 1.347 0.947 1.192 392.356 o
4 5 13 1.053 1.232 2.343 120.073 o
4 6 0 7.521 7.620 0.929 214.722 o
4 6 1 181.490 179.776 3.614 4.184 o
4 6 2 119.602 124.372 3.056 7.751 o
4 6 3 341.034 359.183 5.410 1.391 o
4 6 4 46.386 50.049 2.078 27.652 o
4 6 5 48.492 52.024 1.714 27.825 o
4 6 6 92.204 90.658 2.058 12.251 o
4 6 7 246.035 248.805 4.217 2.512 o
4 6 8 42.053 37.039 1.859 34.376 o
4 6 9 148.592 156.521 3.518 5.492 o
4 6 10 0.361 -0.556 1.400 344.343 o
4 6 11 3.456 5.269 1.281 242.459 o
4 6 12 18.834 18.564 1.236 86.180 o
4 6 13 1.922 2.913 0.978 427.937 o
4 7 0 234.356 245.427 4.549 2.635 o
4 7 1 155.699 144.693 4.314 5.198 o
4 7 2 164.998 170.367 3.775 4.693 o
4 7 3 14.623 12.244 1.411 105.265 o
4 7 4 39.204 37.441 1.840 36.188 o
4 7 5 0.038 1.393 0.758 971.873 o
4 7 6 94.126 98.586 2.272 11.384 o
4 7 7 42.470 40.385 2.026 32.149 o
4 7 8 28.152 24.720 1.618 54.643 o
4 7 9 107.651 108.537 3.707 8.593 o
4 7 10 18.688 14.270 2.648 53.861 o
4 7 11 143.339 136.498 3.443 6.100 o
4 7 12 121.673 98.866 4.010 7.796 o
4 8 0 246.730 270.827 7.276 2.133 o
4 8 1 187.397 192.284 5.993 3.468 o
4 8 2 6.791 4.767 1.533 164.054 o
4 8 3 180.964 194.675 4.678 3.831 o
4 8 4 19.965 18.765 2.339 56.408 o
4 8 5 2.546 2.571 1.471 238.316 o
4 8 6 29.830 33.895 2.050 42.747 o
4 8 7 64.070 62.586 2.918 17.637 o
4 8 8 224.236 239.641 5.874 2.648 o
4 8 9 61.423 60.521 3.309 17.301 o
4 8 10 0.010 1.638 1.424 318.824 o
4 8 11 7.232 3.905 1.837 132.238 o
4 8 12 187.275 173.948 5.007 3.845 o
4 9 0 4.882 13.194 3.232 54.297 o
4 9 1 0.047 4.620 2.840 81.879 o
4 9 2 20.610 23.421 3.025 41.353 o
4 9 3 0.584 -1.286 3.467 57.615 o
4 9 4 169.605 186.753 7.470 3.460 o
4 9 5 31.321 21.759 3.471 30.735 o
4 9 6 0.007 -2.223 2.219 141.890 o
4 9 7 9.885 7.786 2.131 93.224 o
4 9 8 25.392 27.239 2.531 43.357 o
4 9 9 21.306 21.505 2.047 58.877 o
4 9 10 70.918 69.343 4.579 12.284 o
4 9 11 6.242 8.256 2.143 103.235 o
4 10 1 4.966 8.209 4.005 38.987 o
4 10 2 0.350 3.115 3.220 65.034 o
4 10 3 129.674 153.650 6.416 4.993 o
4 10 4 233.808 239.077 7.482 2.360 o
4 10 5 21.502 17.346 1.861 65.856 o
4 10 6 16.814 15.643 3.292 42.387 o
4 10 7 134.128 144.156 6.230 5.087 o
4 10 8 7.177 11.277 2.460 79.587 o
4 10 9 5.416 5.084 2.371 96.191 o
5 -7 0 46.773 38.423 2.898 25.630 o
5 -7 1 21.960 21.019 2.651 47.144 o
5 -7 2 22.755 20.505 3.531 34.236 o
5 -7 3 38.271 48.471 3.086 25.788 o
5 -6 0 110.236 105.906 4.645 7.767 o
5 -6 1 43.156 43.611 4.330 18.771 o
5 -6 2 6.524 9.552 2.879 65.498 o
5 -6 3 3.581 6.560 1.643 170.213 o
5 -6 4 27.847 33.147 2.190 43.170 o
5 -6 5 0.085 -2.809 1.691 243.075 o
5 -5 0 21.078 18.534 2.165 58.802 o
5 -5 1 156.877 171.120 5.766 4.336 o
5 -5 2 43.006 41.436 2.304 29.948 o
5 -5 3 185.875 188.735 4.430 3.840 o
5 -5 4 29.479 29.334 1.993 45.749 o
5 -5 5 35.490 32.778 2.162 37.761 o
5 -5 6 50.514 48.669 2.481 24.549 o
5 -4 0 114.903 111.496 3.913 7.890 o
5 -4 1 34.086 36.429 3.251 28.472 o
5 -4 2 1035.830 1041.800 13.349 0.184 o
5 -4 3 31.751 26.555 1.588 49.543 o
5 -4 4 86.240 91.763 2.836 12.092 o
5 -4 5 0.607 -1.217 1.269 404.066 o
5 -4 6 41.145 37.538 1.855 34.808 o
5 -4 7 106.903 106.623 3.729 8.692 o
5 -4 8 3.371 5.229 1.304 239.376 o
5 -3 0 104.941 88.740 2.504 10.586 o
5 -3 1 80.484 79.107 2.473 14.166 o
5 -3 2 13.348 12.658 1.169 121.631 o
5 -3 3 149.079 158.575 3.075 5.566 o
5 -3 4 750.156 772.024 10.081 0.334 o
5 -3 5 509.721 527.568 7.337 0.682 o
5 -3 6 138.645 139.378 3.522 6.206 o
5 -3 7 19.015 21.474 1.541 74.285 o
5 -3 8 4.256 4.529 0.937 316.083 o
5 -3 9 9.389 6.409 1.645 129.724 o
5 -2 0 13.174 11.166 1.551 106.585 o
5 -2 1 34.800 31.865 1.416 45.219 o
5 -2 2 2.717 3.405 1.022 360.971 o
5 -2 3 13.439 13.270 1.169 119.569 o
5 -2 4 179.311 175.725 3.284 4.346 o
5 -2 5 1541.280 1543.690 27.699 0.082 o
5 -2 6 46.441 46.333 2.475 26.494 o
5 -2 7 54.135 53.675 1.682 25.276 o
5 -2 8 48.738 45.968 2.431 25.898 o
5 -2 9 6.683 4.299 2.259 100.734 o
5 -2 10 13.636 7.237 2.724 62.401 o
5 -1 0 1.033 0.005 1.217 414.851 o
5 -1 1 97.859 89.872 2.785 10.985 o
5 -1 2 1.957 2.647 0.859 501.023 o
5 -1 3 172.440 184.217 3.446 4.382 o
5 -1 4 72.528 70.453 2.252 16.618 o
5 -1 5 3.385 2.840 0.745 457.804 o
5 -1 6 35.874 30.719 1.316 45.528 o
5 -1 7 383.400 400.509 5.248 1.149 o
5 -1 8 149.417 157.670 5.193 4.888 o
5 -1 9 133.169 149.300 5.220 5.501 o
5 -1 10 6.535 6.014 2.374 91.651 o
5 0 0 751.585 781.858 12.611 0.322 o
5 0 1 51.129 50.762 2.081 25.586 o
5 0 2 158.404 169.709 3.453 4.972 o
5 0 3 389.266 401.789 5.538 1.121 o
5 0 4 393.169 401.473 6.818 1.082 o
5 0 5 1.433 0.947 0.679 832.883 o
5 0 6 18.533 17.885 0.897 96.895 o
5 0 7 127.909 131.824 2.735 7.216 o
5 0 8 42.419 40.573 2.818 27.309 o
5 0 9 9.232 4.450 2.279 91.787 o
5 0 10 83.199 101.682 4.506 9.824 o
5 0 11 76.685 82.853 4.735 10.813 o
5 1 0 173.274 168.960 3.482 4.552 o
5 1 1 80.255 80.443 1.761 15.013 o
5 1 2 222.600 214.590 3.418 3.102 o
5 1 3 335.150 369.273 5.142 1.403 o
5 1 4 26.939 29.658 1.358 56.336 o
5 1 5 1027.450 1106.790 13.316 0.179 o
5 1 6 66.678 69.073 1.609 19.189 o
5 1 7 247.786 270.927 7.921 2.062 o
5 1 8 3.311 4.585 1.609 187.442 o
5 1 9 35.373 37.384 2.675 32.152 o
5 1 10 4.378 5.182 2.358 99.973 o
5 1 11 0.439 -0.792 2.146 149.054 o
5 1 12 36.480 34.303 4.522 20.038 o
5 2 0 247.298 256.253 6.578 2.256 o
5 2 1 5.513 4.907 1.023 259.723 o
5 2 2 127.646 119.807 2.800 7.538 o
5 2 3 21.671 16.484 1.041 85.634 o
5 2 4 52.135 50.869 1.455 27.373 o
5 2 5 908.149 954.118 10.769 0.232 o
5 2 6 119.518 122.419 2.175 8.239 o
5 2 7 43.819 38.457 1.053 37.003 o
5 2 8 35.514 33.486 2.341 35.942 o
5 2 9 1.267 0.579 1.563 254.185 o
5 2 10 77.807 87.809 3.944 11.716 o
5 2 11 8.466 8.816 2.229 90.581 o
5 2 12 1.269 3.689 2.634 92.445 o
5 3 0 127.827 120.663 4.542 6.598 o
5 3 1 225.292 241.815 6.428 2.558 o
5 3 2 105.126 107.864 2.910 9.414 o
5 3 3 13.204 8.049 1.013 145.489 o
5 3 4 41.632 49.306 1.492 32.947 o
5 3 5 16.985 18.016 0.943 101.301 o
5 3 6 2.178 4.137 0.672 534.589 o
5 3 7 24.954 21.127 1.122 70.347 o
5 3 8 195.251 205.193 2.947 3.708 o
5 3 9 3.556 3.437 1.572 197.411 o
5 3 10 179.961 196.110 5.553 3.657 o
5 3 11 12.909 9.554 2.512 68.517 o
5 3 12 14.776 13.371 3.554 40.026 o
5 4 0 92.452 106.220 7.484 6.157 o
5 4 1 0.195 0.194 1.542 287.082 o
5 4 2 38.923 46.177 3.090 25.937 o
5 4 3 325.974 337.332 7.963 1.411 o
5 4 4 353.382 345.713 5.057 1.376 o
5 4 5 22.496 22.908 1.229 71.825 o
5 4 6 69.504 72.213 1.711 17.983 o
5 4 7 17.599 15.908 0.972 102.208 o
5 4 8 197.246 194.228 3.644 3.687 o
5 4 9 0.020 0.077 0.585 1977.290 o
5 4 10 5.748 4.155 1.670 158.667 o
5 4 11 53.491 54.831 3.623 18.430 o
5 4 12 2.456 0.521 2.420 109.222 o
5 5 0 9.042 3.971 1.864 120.555 o
5 5 1 16.680 14.963 1.649 84.763 o
5 5 2 20.218 15.481 1.325 84.241 o
5 5 3 4.653 4.372 0.973 297.607 o
5 5 4 112.171 122.376 2.724 8.471 o
5 5 5 67.124 70.237 2.210 17.828 o
5 5 6 101.840 110.701 2.508 9.860 o
5 5 7 32.502 30.111 1.548 47.229 o
5 5 8 29.558 26.355 1.628 51.719 o
5 5 9 10.579 10.362 1.513 122.340 o
5 5 10 40.583 43.091 2.284 30.844 o
5 5 11 9.972 8.754 1.425 136.487 o
5 5 12 28.934 25.440 2.685 39.410 o
5 6 0 241.391 222.588 4.925 2.651 o
5 6 1 0.613 0.476 0.943 661.356 o
5 6 2 20.702 19.028 1.500 74.266 o
5 6 3 0.299 0.667 1.044 575.927 o
5 6 4 127.404 127.417 2.960 7.267 o
5 6 5 9.633 9.938 1.011 167.595 o
5 6 6 7.117 5.985 0.966 229.127 o
5 6 7 40.171 38.260 1.841 35.285 o
5 6 8 18.407 17.559 1.400 84.290 o
5 6 9 9.150 10.477 1.346 142.350 o
5 6 10 1.676 1.395 1.344 306.896 o
5 6 11 12.797 8.932 1.379 122.925 o
5 6 12 4.707 4.531 0.963 296.304 o
5 7 0 181.392 171.060 3.516 4.309 o
5 7 1 31.089 34.091 1.834 43.806 o
5 7 2 268.238 278.240 6.295 2.016 o
5 7 3 3.469 2.714 1.250 275.283 o
5 7 4 0.000 -0.451 1.344 386.713 o
5 7 5 4.006 3.309 1.036 314.116 o
5 7 6 43.546 42.063 1.792 32.422 o
5 7 7 241.196 246.842 4.260 2.573 o
5 7 8 2.718 1.081 1.411 264.582 o
5 7 9 52.915 55.542 2.761 21.622 o
5 7 10 38.452 41.755 3.243 25.938 o
5 7 11 1.044 1.707 1.553 250.570 o
5 7 12 0.160 -0.160 1.498 307.115 o
5 8 0 35.655 31.228 1.777 41.633 o
5 8 1 0.350 1.903 1.232 393.724 o
5 8 2 77.567 75.183 2.727 14.521 o
5 8 3 82.512 78.907 2.856 13.340 o
5 8 4 102.394 110.186 3.487 9.083 o
5 8 5 4.023 0.953 1.572 206.838 o
5 8 6 2.216 0.807 1.025 444.400 o
5 8 7 2.115 -0.052 1.598 235.164 o
5 8 8 8.530 5.879 1.744 127.903 o
5 8 9 28.740 24.635 2.134 46.924 o
5 8 10 72.988 66.557 3.075 15.290 o
5 8 11 2.354 1.978 1.985 151.654 o
5 9 0 15.152 12.366 3.759 36.929 o
5 9 1 77.950 83.717 3.519 12.597 o
5 9 2 8.605 9.470 1.618 127.746 o
5 9 3 230.829 237.604 4.910 2.689 o
5 9 4 123.252 128.465 5.429 6.115 o
5 9 5 140.548 145.296 3.946 5.846 o
5 9 6 0.032 -0.278 0.962 750.525 o
5 9 7 16.254 15.278 2.821 52.102 o
5 9 8 23.897 24.589 3.162 37.030 o
5 9 9 39.971 36.975 2.335 32.401 o
5 9 10 85.008 82.728 3.663 11.646 o
5 10 3 63.752 65.137 4.504 13.482 o
5 10 4 26.957 23.390 2.665 41.827 o
5 10 5 0.682 -2.137 1.884 189.744 o
5 10 6 50.529 48.610 2.761 23.347 o
5 10 7 14.997 18.968 3.202 44.061 o
5 10 8 13.007 10.787 2.224 77.594 o
5 10 9 36.812 36.158 2.865 30.289 o
6 -6 0 1.245 -1.875 2.244 132.322 o
6 -6 1 8.432 12.086 2.113 92.165 o
6 -6 2 15.272 10.853 2.929 52.900 o
6 -6 3 8.595 6.740 2.575 76.262 o
6 -5 0 23.954 18.285 1.830 61.720 o
6 -5 1 44.602 48.183 2.480 26.829 o
6 -5 2 1.211 2.289 1.459 269.238 o
6 -5 3 0.045 -0.802 1.498 310.287 o
6 -5 4 5.380 3.558 1.508 186.702 o
6 -5 5 0.291 0.290 1.681 240.126 o
6 -4 0 28.368 23.824 1.814 52.184 o
6 -4 1 45.740 35.545 2.581 28.396 o
6 -4 2 7.441 6.979 1.458 157.846 o
6 -4 3 119.108 127.908 3.654 7.352 o
6 -4 4 26.697 23.881 1.760 55.032 o
6 -4 5 42.419 45.448 2.452 28.445 o
6 -4 6 54.919 58.626 2.959 19.995 o
6 -4 7 37.172 36.089 2.519 32.777 o
6 -3 0 9.480 11.373 3.332 48.590 o
6 -3 1 105.623 119.903 3.954 8.167 o
6 -3 2 177.455 170.553 3.918 4.333 o
6 -3 3 0.840 2.180 1.253 358.016 o
6 -3 4 7.677 7.008 1.395 162.368 o
6 -3 5 106.187 101.722 3.165 9.378 o
6 -3 6 0.710 2.184 1.418 295.368 o
6 -3 7 0.612 -0.451 1.412 330.607 o
6 -3 8 4.323 3.634 1.454 207.534 o
6 -2 0 9.580 8.729 1.718 117.585 o
6 -2 1 35.009 29.832 1.708 43.417 o
6 -2 2 2.447 1.743 1.056 392.873 o
6 -2 3 168.196 168.035 4.136 4.551 o
6 -2 4 9.858 7.521 1.233 157.499 o
6 -2 5 291.836 282.635 4.831 1.914 o
6 -2 6 233.738 240.082 4.120 2.713 o
6 -2 7 19.900 21.751 1.362 76.198 o
6 -2 8 8.829 5.016 1.513 149.220 o
6 -2 9 0.801 1.728 2.371 117.438 o
6 -1 0 0.473 0.613 1.427 319.272 o
6 -1 1 36.261 25.569 1.758 43.737 o
6 -1 2 0.482 0.159 0.809 914.356 o
6 -1 3 0.913 2.034 0.947 546.617 o
6 -1 4 7.575 7.555 1.049 199.782 o
6 -1 5 68.304 66.371 2.371 17.656 o
6 -1 6 298.166 321.305 7.786 1.593 o
6 -1 7 309.519 332.168 5.007 1.633 o
6 -1 8 682.826 746.872 10.554 0.379 o
6 -1 9 6.233 2.004 2.619 83.763 o
6 -1 10 19.856 18.064 2.825 47.297 o
6 0 0 3.971 3.726 1.631 181.553 o
6 0 1 73.331 59.418 2.547 16.969 o
6 0 2 0.448 0.905 1.096 506.673 o
6 0 3 154.240 152.024 3.478 5.386 o
6 0 4 14.367 15.712 1.497 96.202 o
6 0 5 35.019 35.156 1.816 40.221 o
6 0 6 6.716 5.813 1.100 217.165 o
6 0 7 3.140 2.018 0.823 461.944 o
6 0 8 673.492 700.355 9.813 0.404 o
6 0 9 0.973 1.517 2.473 108.241 o
6 0 10 10.277 11.952 2.577 68.658 o
6 1 0 96.583 90.254 3.645 10.201 o
6 1 1 171.847 175.800 4.563 4.260 o
6 1 2 335.459 352.179 6.028 1.412 o
6 1 3 0.196 0.218 0.933 752.049 o
6 1 4 35.584 41.837 2.066 35.483 o
6 1 5 259.108 261.271 4.512 2.294 o
6 1 6 0.062 -1.184 1.096 575.972 o
6 1 7 10.041 9.991 0.998 164.572 o
6 1 8 21.102 17.425 1.095 84.713 o
6 1 9 150.059 160.929 6.886 4.228 o
6 1 10 267.904 316.345 10.053 1.614 o
6 1 11 332.757 363.967 11.493 1.173 o
6 2 0 621.167 652.591 10.477 0.458 o
6 2 1 65.241 63.759 1.947 19.572 o
6 2 2 15.925 12.543 1.278 105.098 o
6 2 3 294.305 317.449 5.264 1.758 o
6 2 4 138.398 135.002 3.001 6.510 o
6 2 5 10.737 10.509 1.378 130.000 o
6 2 6 38.428 43.467 2.212 32.328 o
6 2 7 231.181 236.105 4.095 2.772 o
6 2 8 0.092 0.011 0.876 888.062 o
6 2 9 1.233 1.235 1.717 210.805 o
6 2 10 5.389 1.865 2.716 80.617 o
6 2 11 148.210 153.517 8.994 3.599 o
6 3 0 229.897 223.174 4.935 2.786 o
6 3 1 17.158 13.436 1.510 90.395 o
6 3 2 436.564 450.516 8.359 0.874 o
6 3 3 6.023 5.328 1.123 228.124 o
6 3 4 28.345 26.038 2.353 43.760 o
6 3 5 8.009 8.135 1.115 183.669 o
6 3 6 266.693 281.972 4.750 2.118 o
6 3 7 102.373 108.277 4.417 8.352 o
6 3 8 73.016 78.180 1.803 16.484 o
6 3 9 0.069 0.408 0.654 1453.720 o
6 3 10 9.953 11.981 2.624 67.519 o
6 3 11 56.017 55.798 4.991 13.711 o
6 3 12 1.164 0.204 2.972 76.963 o
6 4 0 42.974 34.851 2.626 29.481 o
6 4 1 201.415 185.746 6.173 3.261 o
6 4 2 245.713 243.748 5.807 2.404 o
6 4 3 25.435 28.315 2.143 48.249 o
6 4 4 114.796 122.033 4.356 7.303 o
6 4 5 100.591 105.500 2.342 10.324 o
6 4 6 50.567 44.311 1.794 28.309 o
6 4 7 3.950 2.649 1.600 192.629 o
6 4 8 24.148 19.186 1.684 63.553 o
6 4 9 79.034 79.455 2.266 14.655 o
6 4 10 46.188 42.027 2.575 26.919 o
6 4 11 37.108 36.754 3.026 28.848 o
6 4 12 0.338 -0.165 2.857 84.915 o
6 5 0 0.771 2.474 2.114 143.623 o
6 5 1 0.036 0.876 2.223 138.812 o
6 5 2 120.029 118.360 6.984 5.468 o
6 5 3 116.338 112.506 4.699 7.231 o
6 5 4 2.908 3.636 1.200 291.913 o
6 5 5 74.334 75.138 2.215 15.902 o
6 5 6 103.601 100.308 2.492 10.177 o
6 5 7 24.305 24.378 1.319 65.303 o
6 5 8 0.003 -0.537 0.967 747.032 o
6 5 9 173.802 176.389 4.030 4.327 o
6 5 10 79.106 74.421 2.461 14.762 o
6 5 11 146.138 133.675 6.825 4.648 o
6 5 12 0.462 -0.846 3.542 55.305 o
6 6 0 59.562 52.333 3.422 18.132 o
6 6 1 95.744 91.344 3.601 10.274 o
6 6 2 6.501 6.378 1.227 197.993 o
6 6 3 225.159 234.058 5.168 2.751 o
6 6 4 110.857 114.843 4.385 7.686 o
6 6 5 2.958 1.758 1.091 356.554 o
6 6 6 57.293 57.494 2.306 21.645 o
6 6 7 9.639 6.897 1.400 146.998 o
6 6 8 33.969 33.281 1.786 42.109 o
6 6 9 28.490 25.159 1.590 54.300 o
6 6 10 1.182 0.745 1.560 255.080 o
6 6 11 28.759 21.972 1.548 56.659 o
6 6 12 8.763 4.983 1.371 164.234 o
6 7 0 29.928 25.014 2.338 43.055 o
6 7 1 29.070 27.610 2.326 42.841 o
6 7 2 2.479 3.188 1.296 279.564 o
6 7 3 4.425 3.935 1.601 180.592 o
6 7 4 43.191 41.587 2.461 28.903 o
6 7 5 7.436 4.035 1.595 154.720 o
6 7 6 0.854 -0.951 1.502 288.351 o
6 7 7 28.758 25.466 1.854 50.242 o
6 7 8 139.415 142.222 3.583 6.092 o
6 7 9 0.911 2.783 1.553 243.502 o
6 7 10 10.715 7.360 1.684 117.721 o
6 7 11 43.619 38.750 2.547 28.828 o
6 8 0 5.890 6.059 2.014 118.227 o
6 8 1 0.013 2.508 1.600 248.789 o
6 8 2 28.771 22.720 1.787 52.745 o
6 8 3 118.593 115.370 3.496 7.829 o
6 8 4 4.119 2.088 1.617 190.843 o
6 8 5 27.221 30.105 2.171 45.295 o
6 8 6 16.282 13.251 1.769 83.896 o
6 8 7 2.468 5.054 1.839 159.123 o
6 8 8 21.560 18.233 2.198 57.654 o
6 8 9 0.007 -1.022 1.553 289.585 o
6 8 10 1.619 3.533 1.719 192.355 o
6 8 11 6.252 6.817 1.813 131.719 o
6 9 2 3.766 2.734 1.618 191.137 o
6 9 3 21.481 18.825 1.982 61.966 o
6 9 4 0.795 1.141 1.800 199.175 o
6 9 5 48.171 42.261 2.641 25.780 o
6 9 6 5.084 3.370 2.503 91.368 o
6 9 7 61.772 62.056 3.696 16.025 o
6 9 8 0.160 1.467 1.921 180.817 o
6 9 9 2.657 3.386 2.060 136.525 o
7 -5 0 28.651 26.343 3.185 33.730 o
7 -5 1 9.532 8.388 1.886 107.548 o
7 -5 2 44.295 39.925 2.574 28.120 o
7 -5 3 0.024 4.798 2.274 123.676 o
7 -4 0 2.273 2.593 1.484 239.636 o
7 -4 1 35.583 26.543 2.118 40.373 o
7 -4 2 21.372 22.141 2.002 59.249 o
7 -4 3 0.570 0.476 1.822 201.035 o
7 -4 4 2.819 0.242 1.960 157.825 o
7 -4 5 4.278 3.296 1.692 171.787 o
7 -3 0 25.732 18.867 2.865 41.654 o
7 -3 1 75.515 68.714 4.170 12.611 o
7 -3 2 3.414 1.316 1.920 155.090 o
7 -3 3 60.988 57.262 2.434 20.284 o
7 -3 4 0.003 3.758 1.418 293.350 o
7 -3 5 41.486 39.954 2.432 30.239 o
7 -3 6 79.852 81.369 3.150 13.087 o
7 -3 7 40.841 44.028 4.308 19.273 o
7 -2 0 270.250 229.410 6.113 2.214 o
7 -2 2 3.676 3.682 1.320 244.089 o
7 -2 3 31.852 26.788 2.676 37.144 o
7 -2 4 4.600 5.106 1.587 175.258 o
7 -2 5 2.697 2.962 1.435 240.935 o
7 -2 6 26.338 25.308 1.643 56.325 o
7 -2 7 0.207 1.116 1.269 396.927 o
7 -2 8 27.362 29.118 2.177 45.538 o
7 -1 0 54.511 65.946 4.329 15.084 o
7 -1 1 202.395 206.426 7.969 2.782 o
7 -1 2 425.130 383.848 7.799 0.994 o
7 -1 3 0.064 -0.069 1.450 330.600 o
7 -1 4 0.801 2.612 1.508 259.705 o
7 -1 5 0.938 0.725 1.245 387.005 o
7 -1 6 126.896 133.479 3.117 7.063 o
7 -1 7 43.286 41.119 1.928 32.072 o
7 -1 8 13.143 11.016 1.002 136.255 o
7 -1 9 27.799 24.793 2.999 36.648 o
7 0 0 239.237 261.678 20.607 1.021 o
7 0 1 217.414 246.136 7.731 2.451 o
7 0 2 0.070 -2.947 1.470 321.450 o
7 0 3 302.347 288.718 7.958 1.648 o
7 0 4 219.938 220.942 4.654 2.963 o
7 0 5 18.781 15.718 1.618 79.421 o
7 0 6 102.194 104.895 3.434 9.343 o
7 0 7 4.469 5.070 1.314 220.902 o
7 0 8 73.697 75.562 2.056 16.232 o
7 0 9 142.743 147.831 8.761 3.810 o
7 0 10 3.127 2.814 2.543 94.653 o
7 1 0 99.623 106.787 9.589 4.540 o
7 1 1 259.272 279.798 7.714 1.964 o
7 1 2 30.952 27.538 2.336 41.247 o
7 1 3 17.758 21.215 1.795 70.787 o
7 1 4 220.510 219.322 4.655 2.967 o
7 1 5 165.460 162.930 4.416 4.619 o
7 1 6 186.192 205.757 3.789 3.770 o
7 1 7 61.134 60.101 2.932 18.477 o
7 1 8 1.053 2.524 1.189 372.822 o
7 1 9 1.038 2.977 3.019 72.682 o
7 1 10 17.204 20.622 3.958 31.642 o
7 2 0 398.566 412.222 8.695 1.006 o
7 2 1 272.682 265.703 9.022 1.811 o
7 2 2 83.787 92.046 4.183 10.594 o
7 2 3 142.280 145.064 3.400 5.984 o
7 2 4 9.656 6.971 1.188 165.674 o
7 2 5 9.077 5.518 1.226 174.222 o
7 2 6 16.243 13.700 1.282 101.403 o
7 2 7 1.305 2.586 1.416 277.047 o
7 2 8 6.500 5.138 1.056 232.751 o
7 2 9 26.501 29.955 2.159 46.189 o
7 2 10 0.174 -3.241 3.743 49.763 o
7 2 11 167.018 176.565 8.379 3.337 o
7 3 0 55.751 60.295 2.809 20.083 o
7 3 1 118.602 124.142 3.698 7.456 o
7 3 2 427.016 450.446 8.327 0.896 o
7 3 3 672.341 693.697 10.269 0.405 o
7 3 4 55.698 57.098 2.273 22.280 o
7 3 5 18.558 19.941 1.441 79.685 o
7 3 6 53.388 53.240 2.315 23.471 o
7 3 7 17.113 12.360 1.392 96.577 o
7 3 8 12.701 12.564 1.395 113.605 o
7 3 9 40.209 41.361 1.565 35.950 o
7 3 10 33.358 31.803 4.170 23.028 o
7 3 11 4.116 1.079 3.768 46.163 o
7 4 0 13.128 8.388 4.417 29.989 o
7 4 1 6.935 0.603 5.092 25.492 o
7 4 2 2.507 2.696 2.754 83.607 o
7 4 3 971.290 1040.110 16.452 0.194 o
7 4 4 130.188 131.352 3.314 6.862 o
7 4 5 197.189 208.378 4.363 3.453 o
7 4 6 94.906 104.905 2.909 10.426 o
7 4 7 5.286 5.206 1.299 210.725 o
7 4 8 73.118 78.839 2.462 15.385 o
7 4 9 9.727 7.188 1.067 175.281 o
7 4 10 70.597 75.297 4.434 12.286 o
7 4 11 1.669 2.528 2.920 76.725 o
7 5 0 22.201 21.306 2.960 41.930 o
7 5 1 99.590 99.963 5.519 7.734 o
7 5 2 34.911 29.780 3.140 30.388 o
7 5 3 20.402 16.738 3.304 39.542 o
7 5 4 4.177 3.136 1.393 224.804 o
7 5 5 466.647 502.322 6.745 0.784 o
7 5 6 111.999 109.836 3.105 8.687 o
7 5 7 32.003 32.363 1.911 42.991 o
7 5 8 1.508 4.420 1.658 199.879 o
7 5 9 5.926 4.707 1.556 169.089 o
7 5 10 0.027 1.001 1.115 519.356 o
7 5 11 0.038 2.009 2.935 79.255 o
7 6 0 2.228 0.060 2.875 80.219 o
7 6 1 28.586 27.488 3.125 34.092 o
7 6 2 242.987 260.630 7.099 2.224 o
7 6 3 21.390 22.625 2.577 48.182 o
7 6 4 4.446 3.313 1.624 179.989 o
7 6 5 38.443 35.837 2.181 34.711 o
7 6 6 208.083 217.350 4.666 3.160 o
7 6 7 0.121 1.737 1.770 210.034 o
7 6 8 15.816 14.238 1.779 83.468 o
7 6 9 30.615 27.491 2.402 40.765 o
7 6 10 7.990 6.586 1.580 143.259 o
7 6 11 11.871 9.628 1.590 113.207 o
7 7 0 0.115 2.474 2.835 84.163 o
7 7 1 46.701 37.655 2.875 25.916 o
7 7 2 43.512 39.781 2.883 26.656 o
7 7 3 18.660 14.423 1.754 77.198 o
7 7 4 36.057 32.982 2.327 35.882 o
7 7 5 23.048 20.035 2.096 56.559 o
7 7 6 55.705 59.862 3.023 19.450 o
7 7 7 9.327 4.487 1.632 136.753 o
7 7 8 70.182 82.362 2.943 14.735 o
7 7 9 2.339 4.817 1.616 195.641 o
7 7 10 1.328 0.243 1.581 250.867 o
7 8 2 19.353 21.750 2.763 47.233 o
7 8 3 32.222 32.349 2.826 33.823 o
7 8 4 98.843 108.418 3.738 9.196 o
7 8 5 8.577 7.497 2.805 66.654 o
7 8 6 119.366 115.514 6.688 5.712 o
7 8 7 23.609 24.478 1.857 57.188 o
7 8 8 37.014 35.845 2.516 32.950 o
7 8 9 35.401 33.879 2.317 36.099 o
7 9 5 16.744 16.415 3.083 45.856 o
7 9 6 8.838 5.110 2.807 67.967 o
7 9 7 27.040 25.606 2.187 47.377 o
8 -3 0 0.061 -2.714 2.530 109.003 o
8 -3 1 6.120 7.201 5.657 20.537 o
8 -3 2 22.425 14.012 3.349 38.486 o
8 -3 3 1.432 -2.216 1.734 212.398 o
8 -3 4 6.440 10.332 1.898 115.404 o
8 -2 0 1.878 2.658 2.623 92.911 o
8 -2 1 93.756 96.847 4.542 9.180 o
8 -2 2 12.945 12.560 2.716 60.015 o
8 -2 3 25.664 26.320 2.810 39.812 o
8 -2 4 107.447 111.097 3.745 8.492 o
8 -2 5 0.260 1.656 1.576 259.133 o
8 -2 6 2.238 -0.468 2.005 156.555 o
8 -1 0 0.614 3.827 2.189 132.006 o
8 -1 1 1.942 3.806 2.062 139.161 o
8 -1 2 44.695 26.844 2.689 30.093 o
8 -1 3 63.135 53.782 3.046 18.398 o
8 -1 4 3.131 1.729 1.834 167.704 o
8 -1 5 149.398 155.443 4.990 4.992 o
8 -1 6 0.657 0.345 2.091 154.129 o
8 -1 7 10.999 10.492 1.912 97.160 o
8 0 0 17.232 19.159 2.456 57.004 o
8 0 1 3.173 1.776 1.968 149.046 o
8 0 2 0.123 1.674 2.022 163.328 o
8 0 3 42.681 27.193 2.438 32.826 o
8 0 4 22.903 25.465 2.818 41.975 o
8 0 5 7.176 6.593 1.951 116.410 o
8 0 6 31.998 30.669 2.375 38.892 o
8 0 7 0.001 0.578 2.076 160.114 o
8 0 8 3.296 0.385 1.690 196.644 o
8 1 0 42.387 34.184 3.378 25.059 o
8 1 1 86.151 90.359 4.581 9.942 o
8 1 2 19.387 17.609 2.959 45.507 o
8 1 3 10.406 12.408 1.958 93.690 o
8 1 4 1.570 3.172 1.800 180.599 o
8 1 5 158.552 145.222 4.659 4.988 o
8 1 6 116.832 124.099 4.257 7.209 o
8 1 7 7.354 10.278 1.796 118.803 o
8 1 8 31.818 29.955 2.520 37.768 o
8 1 9 18.088 19.320 1.806 71.721 o
8 2 0 2.785 3.335 2.694 85.721 o
8 2 1 38.998 46.752 4.228 19.738 o
8 2 2 80.743 79.409 4.777 10.550 o
8 2 3 31.435 29.851 2.246 40.972 o
8 2 4 284.447 303.762 6.793 1.782 o
8 2 5 0.014 -2.081 1.440 336.795 o
8 2 6 209.732 208.453 6.804 2.879 o
8 2 7 123.071 121.639 3.613 7.330 o
8 2 8 21.813 22.381 2.371 51.507 o
8 2 9 31.993 32.718 1.640 45.524 o
8 3 0 41.934 43.672 3.586 22.616 o
8 3 1 12.933 12.937 2.731 59.397 o
8 3 2 2.788 -2.570 2.554 98.737 o
8 3 3 17.203 17.878 1.592 81.403 o
8 3 4 28.489 32.825 2.332 41.156 o
8 3 5 156.662 168.071 4.128 4.871 o
8 3 6 2.299 2.777 1.598 212.189 o
8 3 7 0.186 1.725 1.513 280.115 o
8 3 8 104.498 109.334 3.507 8.944 o
8 3 9 7.866 7.811 2.075 102.807 o
8 3 10 2.326 -0.231 1.365 300.582 o
8 4 0 32.448 26.120 3.446 29.598 o
8 4 1 36.038 33.762 4.301 21.385 o
8 4 2 24.142 22.461 3.923 29.090 o
8 4 3 36.160 29.408 2.933 31.631 o
8 4 4 225.127 231.178 4.651 2.826 o
8 4 5 119.093 120.850 3.504 7.635 o
8 4 6 194.560 199.431 4.759 3.515 o
8 4 7 72.276 72.862 3.366 14.326 o
8 4 8 0.902 0.372 1.619 246.595 o
8 4 9 38.986 41.404 3.011 27.277 o
8 4 10 17.059 15.039 1.343 93.942 o
8 5 0 19.955 25.590 4.612 23.977 o
8 5 1 121.046 110.541 5.914 6.238 o
8 5 2 0.330 0.064 3.086 72.850 o
8 5 3 3.298 5.078 1.956 139.374 o
8 5 4 108.929 106.204 4.722 7.770 o
8 5 5 71.755 74.546 4.252 12.550 o
8 5 6 211.754 227.222 5.351 2.945 o
8 5 7 0.086 1.226 1.518 286.378 o
8 5 8 63.395 61.141 3.057 17.549 o
8 5 9 5.388 8.314 1.614 152.063 o
8 5 10 0.774 0.434 1.862 190.808 o
8 6 1 15.746 8.754 3.464 42.384 o
8 6 2 0.379 0.239 3.036 75.021 o
8 6 3 2.972 2.511 3.052 68.744 o
8 6 4 0.671 0.778 1.819 198.616 o
8 6 5 0.007 -3.264 2.011 172.740 o
8 6 6 257.570 267.960 4.938 2.247 o
8 6 7 102.364 98.886 3.346 9.645 o
8 6 8 33.998 33.098 1.935 40.791 o
8 6 9 59.894 59.929 2.665 19.555 o
8 7 3 71.588 72.116 4.975 11.331 o
8 7 4 139.547 148.641 6.083 4.940 o
8 7 5 67.667 72.209 3.125 15.595 o
8 7 6 0.102 -3.091 1.622 263.727 o
8 7 7 82.234 76.373 2.947 13.413 o
8 7 8 34.013 28.714 2.228 39.636 o
9 0 1 14.114 11.361 2.800 57.073 o
9 0 2 18.465 17.550 2.983 45.858 o
9 0 3 0.584 -5.155 2.550 105.612 o
9 0 4 8.976 9.281 2.705 68.305 o
9 0 5 3.439 0.700 2.192 125.601 o
9 1 1 10.544 7.388 2.720 66.797 o
9 1 2 8.854 10.938 2.635 69.710 o
9 1 3 61.414 55.307 3.743 16.522 o
9 1 4 112.952 118.638 5.013 7.025 o
9 1 5 6.598 5.239 2.290 97.580 o
9 1 6 0.181 1.038 2.073 157.560 o
9 2 1 2.215 4.606 2.654 87.851 o
9 2 2 0.640 0.597 2.369 120.592 o
9 2 3 1.594 -0.507 2.487 107.488 o
9 2 4 6.866 12.299 2.646 71.453 o
9 2 5 7.281 7.032 2.192 98.739 o
9 2 6 0.461 -0.144 2.401 119.371 o
9 2 7 22.297 23.257 2.264 52.389 o
9 3 1 11.798 12.164 3.720 39.318 o
9 3 2 1.793 3.366 2.830 80.273 o
9 3 3 1.874 3.094 2.645 90.996 o
9 3 4 200.739 221.570 7.332 2.822 o
9 3 5 0.218 -1.896 2.083 159.546 o
9 3 6 54.069 53.980 4.470 15.587 o
9 3 7 14.950 12.094 2.152 74.814 o
9 4 2 14.105 13.031 3.648 38.996 o
9 4 3 23.510 18.920 2.777 44.655 o
9 4 4 1.994 -2.629 2.504 104.847 o
9 4 5 9.288 9.701 2.595 71.514 o
9 4 6 0.093 0.547 2.083 158.510 o
9 4 7 74.574 77.965 3.998 12.512 o
9 5 4 94.306 106.434 9.568 4.653 o
9 5 5 14.089 16.382 2.893 52.133 o
9 5 6 0.837 0.515 2.081 153.803 o
9 5 7 20.967 20.367 2.276 55.452 o
;
_olex2_submission_special_instructions 'No special instructions were received'
loop_
_space_group_symop_id
_space_group_symop_operation_xyz
1 x,y,z
2 -x,-y,-z
loop_
_atom_site_label
_atom_site_type_symbol
_atom_site_fract_x
_atom_site_fract_y
_atom_site_fract_z
_atom_site_U_iso_or_equiv
_atom_site_adp_type
_atom_site_occupancy
_atom_site_refinement_flags_posn
C1 C 0.2590(2) 0.7332(2) 0.13143(17) 0.0239(4) Uani 1.000000 .
C2 C 0.1192(2) 0.6259(2) 0.22712(16) 0.0205(4) Uani 1.000000 .
C3 C -0.0630(2) 0.6799(2) 0.24016(17) 0.0233(4) Uani 1.000000 .
H3 H -0.0978(2) 0.7835(2) 0.18540(17) 0.0280(5) Uiso 1.000000 R
C4 C -0.1942(2) 0.5853(2) 0.33159(18) 0.0253(4) Uani 1.000000 .
H4 H -0.3182(2) 0.6236(2) 0.33907(18) 0.0304(5) Uiso 1.000000 R
C5 C -0.1443(2) 0.4343(2) 0.41248(17) 0.0219(4) Uani 1.000000 .
H5 H -0.2351(2) 0.3703(2) 0.47605(17) 0.0263(5) Uiso 1.000000 R
C6 C 0.0367(2) 0.37510(19) 0.40201(16) 0.0186(4) Uani 1.000000 .
C7 C 0.1659(2) 0.47334(19) 0.30822(16) 0.0185(4) Uani 1.000000 .
C8 C 0.0840(2) 0.2093(2) 0.49207(17) 0.0215(4) Uani 1.000000 .
C9 C -0.0006(2) 0.58106(19) 0.94973(16) 0.0187(4) Uani 1.000000 .
C10 C -0.1603(2) 0.6787(2) 0.93760(18) 0.0251(4) Uani 1.000000 .
H10 H -0.2723(2) 0.6437(2) 0.99619(18) 0.0301(5) Uiso 1.000000 R
C11 C -0.1554(3) 0.8259(2) 0.84055(19) 0.0285(4) Uani 1.000000 .
H11 H -0.2654(3) 0.8917(2) 0.83241(19) 0.0342(5) Uiso 1.000000 R
C12 C 0.1539(3) 0.7897(2) 0.7685(2) 0.0352(5) Uani 1.000000 .
H12 H 0.2638(3) 0.8295(2) 0.7102(2) 0.0423(6) Uiso 1.000000 R
C13 C 0.1584(3) 0.6403(2) 0.8630(2) 0.0346(5) Uani 1.000000 .
H13 H 0.2708(3) 0.5776(2) 0.8688(2) 0.0416(6) Uiso 1.000000 R
N1 N 0.35924(19) 0.41137(17) 0.29123(15) 0.0232(3) Uani 1.000000 .
N2 N -0.0012(2) 0.87890(17) 0.75764(15) 0.0266(4) Uani 1.000000 .
H2 H -0.0020(2) 0.97335(17) 0.69541(15) 0.0319(4) Uiso 1.000000 R
O1 O 0.18947(19) 0.86345(16) 0.05184(14) 0.0363(4) Uani 1.000000 .
H1 H 0.2726(3) 0.9172(13) -0.0038(16) 0.0545(5) Uiso 1.000000 GR
O2 O 0.41792(18) 0.70310(16) 0.12970(13) 0.0336(3) Uani 1.000000 .
O3 O -0.04938(18) 0.14733(15) 0.58489(13) 0.0344(3) Uani 1.000000 .
O4 O 0.24093(17) 0.14612(15) 0.47314(14) 0.0325(3) Uani 1.000000 .
O5 O 0.43726(17) 0.41781(16) 0.36757(13) 0.0311(3) Uani 1.000000 .
O6 O 0.42763(17) 0.35738(17) 0.20058(14) 0.0353(3) Uani 1.000000 .
O2W O 0.41799(18) 0.05078(16) 0.87492(10) 0.0342(3) Uani 1.000000 .
H2Wa H 0.4567(19) 0.1279(11) 0.8807(2) 0.0513(5) Uiso 1.000000 G
H2Wb H 0.44643(16) 0.06749(13) 0.78837(10) 0.0513(5) Uiso 1.000000 G
O1W O 0.5133(2) 0.09097(19) 0.61236(11) 0.0507(5) Uani 1.000000 G
H1Wa H 0.4306(3) 0.1042(18) 0.5710(4) 0.0761(7) Uiso 1.000000 G
H1Wb H 0.5976(14) 0.0250(11) 0.5836(3) 0.0761(7) Uiso 1.000000 G
loop_
_atom_site_aniso_label
_atom_site_aniso_U_11
_atom_site_aniso_U_22
_atom_site_aniso_U_33
_atom_site_aniso_U_12
_atom_site_aniso_U_13
_atom_site_aniso_U_23
C1 0.0272(10) 0.0203(9) 0.0227(9) -0.0056(7) -0.0053(7) -0.0050(7)
C2 0.0220(9) 0.0195(9) 0.0198(8) -0.0041(7) -0.0056(7) -0.0054(7)
C3 0.0246(10) 0.0176(9) 0.0256(9) -0.0001(7) -0.0102(7) -0.0034(7)
C4 0.0180(9) 0.0243(10) 0.0301(9) 0.0007(7) -0.0070(7) -0.0067(8)
C5 0.0189(9) 0.0206(9) 0.0236(9) -0.0043(7) -0.0040(7) -0.0049(7)
C6 0.0193(9) 0.0183(9) 0.0186(8) -0.0017(7) -0.0055(7) -0.0064(7)
C7 0.0172(9) 0.0196(9) 0.0198(8) -0.0010(7) -0.0059(7) -0.0078(7)
C8 0.0223(9) 0.0174(9) 0.0255(9) -0.0020(7) -0.0086(7) -0.0065(7)
C9 0.0196(9) 0.0185(9) 0.0183(8) -0.0041(7) -0.0041(7) -0.0063(7)
C10 0.0185(9) 0.0244(10) 0.0252(9) -0.0028(7) -0.0006(7) -0.0051(7)
C11 0.0257(10) 0.0227(10) 0.0311(10) 0.0029(8) -0.0066(8) -0.0066(8)
C12 0.0258(11) 0.0268(10) 0.0382(11) -0.0084(8) -0.0016(8) 0.0018(8)
C13 0.0203(10) 0.0268(10) 0.0400(11) -0.0047(8) -0.0033(8) 0.0036(8)
N1 0.0185(8) 0.0208(8) 0.0267(8) -0.0035(6) -0.0043(6) -0.0051(6)
N2 0.0339(9) 0.0164(8) 0.0243(8) -0.0053(6) -0.0073(7) -0.0006(6)
O1 0.0332(8) 0.0262(7) 0.0367(8) -0.0099(6) -0.0101(6) 0.0069(6)
O2 0.0248(8) 0.0299(7) 0.0368(7) -0.0096(6) -0.0057(6) -0.0002(6)
O3 0.0280(7) 0.0229(7) 0.0361(7) -0.0040(6) -0.0035(6) 0.0036(6)
O4 0.0253(7) 0.0226(7) 0.0419(8) 0.0031(5) -0.0101(6) -0.0051(6)
O5 0.0227(7) 0.0373(8) 0.0337(7) -0.0042(6) -0.0124(6) -0.0083(6)
O6 0.0223(7) 0.0437(8) 0.0441(8) -0.0009(6) -0.0002(6) -0.0275(7)
O2W 0.0420(8) 0.0302(8) 0.0275(7) -0.0164(6) -0.0069(6) -0.0018(6)
O1W 0.0481(10) 0.0650(11) 0.0427(8) 0.0245(8) -0.0231(8) -0.0299(8)
loop_
_atom_type_symbol
_atom_type_scat_dispersion_real
_atom_type_scat_dispersion_imag
_atom_type_scat_Cromer_Mann_a1
_atom_type_scat_Cromer_Mann_a2
_atom_type_scat_Cromer_Mann_a3
_atom_type_scat_Cromer_Mann_a4
_atom_type_scat_Cromer_Mann_b1
_atom_type_scat_Cromer_Mann_b2
_atom_type_scat_Cromer_Mann_b3
_atom_type_scat_Cromer_Mann_b4
_atom_type_scat_Cromer_Mann_c
_atom_type_scat_source
_atom_type_scat_dispersion_source
H 0.00000 0.00000 0.49300 0.32291 0.14019 0.04081 10.51090 26.12570 3.14236
57.79970 0.0030380000826
'International Tables Volume C Table 6.1.1.4 (pp. 500-502)'
'Henke, Gullikson and Davis, At. Data and Nucl. Data Tables, 1993, 54, 2'
C 0.00347 0.00161 2.31000 1.02000 1.58860 0.86500 20.84390 10.20750 0.56870
51.65120 0.215599998832
'International Tables Volume C Table 6.1.1.4 (pp. 500-502)'
'Henke, Gullikson and Davis, At. Data and Nucl. Data Tables, 1993, 54, 2'
O 0.01158 0.00611 3.04850 2.28680 1.54630 0.86700 13.27710 5.70110 0.32390
32.90890 0.250800013542
'International Tables Volume C Table 6.1.1.4 (pp. 500-502)'
'Henke, Gullikson and Davis, At. Data and Nucl. Data Tables, 1993, 54, 2'
N 0.00653 0.00323 12.21260 3.13220 2.01250 1.16630 0.00570 9.89330 28.99750
0.58260 -11.5290002823
'International Tables Volume C Table 6.1.1.4 (pp. 500-502)'
'Henke, Gullikson and Davis, At. Data and Nucl. Data Tables, 1993, 54, 2'
loop_
_geom_angle_atom_site_label_1
_geom_angle_atom_site_label_2
_geom_angle_atom_site_label_3
_geom_angle
_geom_angle_site_symmetry_1
_geom_angle_site_symmetry_3
O1 C1 C2 112.39(15) . .
O2 C1 C2 123.49(16) . .
O2 C1 O1 124.11(16) . .
C3 C2 C1 119.92(15) . .
C7 C2 C1 121.87(15) . .
C7 C2 C3 118.17(15) . .
H3 C3 C2 119.52(10) . .
C4 C3 C2 120.95(16) . .
C4 C3 H3 119.52(10) . .
H4 C4 C3 120.09(10) . .
C5 C4 C3 119.83(16) . .
C5 C4 H4 120.09(10) . .
H5 C5 C4 119.45(10) . .
C6 C5 C4 121.09(16) . .
C6 C5 H5 119.45(9) . .
C7 C6 C5 117.67(15) . .
C8 C6 C5 119.02(15) . .
C8 C6 C7 123.31(15) . .
C6 C7 C2 122.29(15) . .
N1 C7 C2 118.86(14) . .
N1 C7 C6 118.82(14) . .
O3 C8 C6 113.99(15) . .
O4 C8 C6 120.52(15) . .
O4 C8 O3 125.49(16) . .
C13 C9 C10 117.33(16) . .
H10 C10 C9 120.20(10) . .
C11 C10 C9 119.59(17) . .
C11 C10 H10 120.20(11) . .
H11 C11 C10 119.10(11) . .
N2 C11 C10 121.80(17) . .
N2 C11 H11 119.10(10) . .
C13 C12 H12 119.46(12) . .
N2 C12 H12 119.46(11) . .
N2 C12 C13 121.08(18) . .
C12 C13 C9 120.14(18) . .
H13 C13 C9 119.93(10) . .
H13 C13 C12 119.93(12) . .
O5 N1 C7 118.30(14) . .
O6 N1 C7 116.58(14) . .
O6 N1 O5 125.12(15) . .
C12 N2 C11 120.04(16) . .
H2 N2 C11 119.98(10) . .
H2 N2 C12 119.98(11) . .
H1 O1 C1 109.5 . .
H2Wb O2W H2Wa 104.5 . .
H1Wb O1W H1Wa 104.5 . .
loop_
_geom_bond_atom_site_label_1
_geom_bond_atom_site_label_2
_geom_bond_distance
_geom_bond_site_symmetry_2
C1 C2 1.500(2) .
C1 O1 1.312(2) .
C1 O2 1.214(2) .
C2 C3 1.389(2) .
C2 C7 1.392(2) .
C3 H3 0.9500 .
C3 C4 1.381(2) .
C4 H4 0.9500 .
C4 C5 1.388(2) .
C5 H5 0.9500 .
C5 C6 1.392(2) .
C6 C7 1.395(2) .
C6 C8 1.514(2) .
C7 N1 1.481(2) .
C8 O3 1.269(2) .
C8 O4 1.234(2) .
C9 C9 1.484(3) 2_567
C9 C10 1.387(2) .
C9 C13 1.385(3) .
C10 H10 0.9500 .
C10 C11 1.371(3) .
C11 H11 0.9500 .
C11 N2 1.327(2) .
C12 H12 0.9500 .
C12 C13 1.376(3) .
C12 N2 1.326(3) .
C13 H13 0.9500 .
N1 O5 1.2164(18) .
N1 O6 1.2185(19) .
N2 H2 0.8800 .
O1 H1 0.8400 .
O2W H2Wa 0.8699 .
O2W H2Wb 0.8700 .
O1W H1Wa 0.8700 .
O1W H1Wb 0.8700 .
loop_
_refln_index_h
_refln_index_k
_refln_index_l
_refln_F_squared_meas
_refln_F_squared_sigma
-1 0 0 279.61 7.99
-1 0 0 283.86 7.99
1 0 0 287.27 7.99
1 0 0 287.01 8
-2 0 0 160.66 4.7
-2 0 0 162.05 4.72
2 0 0 155.17 4.7
2 0 0 163.62 4.72
-3 0 0 270.94 7.95
-3 0 0 265.25 7.92
3 0 0 278.26 7.95
3 0 0 275.67 7.96
-4 0 0 2.37 0.48
-4 0 0 2.14 0.49
4 0 0 2.53 0.49
4 0 0 3.1 0.53
-5 0 0 159.24 5
-5 0 0 147.77 5.01
5 0 0 156.78 5.02
5 0 0 158.15 5.05
-6 0 0 0.13 0.64
-6 0 0 0.94 0.63
6 0 0 0.91 0.66
6 0 0 1 0.67
-7 0 0 48.2 2.49
-7 0 0 46.25 2.58
7 0 0 59.77 2.55
-8 0 0 2.54 1.19
-8 0 0 2.48 1.03
8 0 0 4.74 0.93
8 0 0 3.85 1.17
8 0 0 4.47 1.24
-9 0 0 4.92 1.62
-9 0 0 3.84 1.36
9 0 0 2.91 1.09
9 0 0 7.17 1.62
9 0 0 2.85 1.51
9 -1 0 3.11 1.6
9 -1 0 2.26 1.66
9 -1 0 1.55 1.01
-9 1 0 3.15 1.39
-9 1 0 -2.67 1.49
8 -1 0 0.66 0.75
8 -1 0 0.3 1.04
8 -1 0 1.84 1.12
-8 1 0 1.38 1.03
-8 1 0 -0.32 1.1
7 -1 0 13.53 1.31
-7 1 0 11.15 1.47
-7 1 0 14.4 1.62
6 -1 0 0.11 0.46
6 -1 0 0.24 0.62
-6 1 0 0.39 0.66
-6 1 0 -0.22 0.6
5 -1 0 0.3 0.5
5 -1 0 -0.65 0.33
5 -1 0 0.36 0.51
-5 1 0 0.37 0.55
4 -1 0 145.76 4.52
4 -1 0 146.45 4.64
4 -1 0 145.46 4.61
4 -1 0 144.56 4.11
-4 1 0 146.53 4.64
-4 1 0 148.05 4.61
3 -1 0 45.93 1.76
3 -1 0 47.81 1.43
3 -1 0 51.52 1.82
3 -1 0 48.89 1.71
-3 1 0 50.81 1.8
-3 1 0 46.46 1.79
2 -1 0 0.87 0.3
2 -1 0 0.53 0.27
2 -1 0 0.85 0.24
-2 1 0 0.57 0.28
-2 1 0 1.1 0.29
1 -1 0 15.6 0.61
1 -1 0 15.05 0.65
1 -1 0 15.57 0.67
-1 1 0 17.45 0.68
-1 1 0 17.23 0.67
-1 1 0 15.48 0.61
0 -1 0 134.25 3.62
0 -1 0 126.14 3.63
0 1 0 109.26 3.53
0 1 0 123.47 3.63
-1 -1 0 76.08 2.28
-1 -1 0 77.95 2.28
1 1 0 76.92 2.29
1 1 0 73.35 2.12
1 1 0 73.89 2.27
-2 -1 0 59.52 1.98
-2 -1 0 60.88 1.97
-2 -1 0 63.34 1.75
2 1 0 58.63 1.98
2 1 0 57.98 1.96
-3 -1 0 9.54 0.42
-3 -1 0 9.06 0.72
-3 -1 0 8.42 0.7
3 1 0 8.16 0.69
3 1 0 8.82 0.72
-4 -1 0 84.98 2.52
-4 -1 0 81.41 2.35
-4 -1 0 85.88 2.89
-4 -1 0 84.02 2.91
4 1 0 83.22 2.9
4 1 0 82.07 2.87
-5 -1 0 35.97 1.62
-5 -1 0 33.26 1.26
-5 -1 0 33.66 1.69
5 1 0 31.38 1.65
5 1 0 33.72 1.68
-6 -1 0 18.69 1.41
-6 -1 0 16.97 1.52
6 1 0 18.16 1.45
6 1 0 17.82 1.43
-7 -1 0 22.92 1.88
-7 -1 0 23.33 1.8
7 1 0 16.9 1.69
-8 -1 0 6.15 1.19
-8 -1 0 7.47 1.4
8 1 0 5.44 1.27
8 1 0 8.36 1.63
-9 -1 0 2.1 1.52
-9 -1 0 -1.56 1.15
9 1 0 1.33 0.99
9 1 0 1.52 1.46
9 1 0 -0.81 1.4
8 -2 0 -1.3 1.54
8 -2 0 -0.31 0.79
8 -2 0 1.64 1.18
-8 2 0 1.63 1.07
-8 2 0 0.87 1.22
7 -2 0 45.91 2.26
7 -2 0 46.84 2.58
-7 2 0 44.5 2.51
-7 2 0 45.35 2.42
6 -2 0 1.83 0.75
6 -2 0 1.69 0.57
-6 2 0 1.41 0.69
-6 2 0 2.08 0.79
5 -2 0 1.43 0.58
5 -2 0 2.15 0.23
5 -2 0 3.72 0.68
5 -2 0 1.71 0.47
-5 2 0 2.01 0.64
4 -2 0 1.14 0.49
4 -2 0 0.89 0.45
4 -2 0 1.31 0.37
-4 2 0 0.85 0.47
-4 2 0 0.79 0.42
3 -2 0 54.82 1.91
3 -2 0 56.31 2
3 -2 0 53.72 2.01
-3 2 0 51.48 2.01
-3 2 0 55.7 2
2 -2 0 74.8 2.49
2 -2 0 76.35 2.52
2 -2 0 77.76 2.44
-2 2 0 77.95 2.53
-2 2 0 78.22 2.42
1 -2 0 215.95 6.18
1 -2 0 207.29 6.1
1 -2 0 218.94 6.19
-1 2 0 216.54 6.18
-1 2 0 208.94 6.09
-1 2 0 211.81 6.18
0 -2 0 25.43 0.98
0 -2 0 24.09 0.95
0 2 0 25.84 0.97
0 2 0 23.75 0.97
-1 -2 0 56.74 1.66
-1 -2 0 57.39 1.87
-1 -2 0 56.34 1.86
1 2 0 56.37 1.87
1 2 0 57 1.87
-2 -2 0 5.83 0.57
-2 -2 0 7.27 0.6
2 2 0 6.92 0.29
2 2 0 7.52 0.61
2 2 0 6.67 0.61
-3 -2 0 78.65 2.69
-3 -2 0 81.38 2.31
-3 -2 0 77.66 2.67
3 2 0 81.4 2.71
3 2 0 78.47 2.68
-4 -2 0 0.98 0.23
-4 -2 0 0.8 0.47
-4 -2 0 0.62 0.41
4 2 0 0.62 0.45
4 2 0 1.17 0.47
-5 -2 0 56.9 2.12
-5 -2 0 47.78 2.16
-5 -2 0 49.14 1.65
5 2 0 49.55 2.17
5 2 0 51.66 2.18
-6 -2 0 125.29 3.89
-6 -2 0 129.31 4.55
-6 -2 0 130.96 4.53
6 2 0 139.51 4.53
6 2 0 124.9 4.5
-7 -2 0 81.75 3.39
-7 -2 0 81.04 3.45
7 2 0 82.3 3.56
7 2 0 83.08 3.45
-8 -2 0 1.21 1
-8 -2 0 -0.8 1.1
8 2 0 1.33 1.1
8 2 0 0.86 1.1
-9 -2 0 -0.03 1.27
-9 -2 0 -0.91 1.44
9 2 0 0.95 1.51
9 2 0 -0.02 1.47
8 -3 0 1.34 1.4
8 -3 0 -0.78 1.23
8 -3 0 -1.1 0.87
-8 3 0 0 1.09
-8 3 0 -1.82 1.28
7 -3 0 2.91 1.15
7 -3 0 4.74 0.93
-7 3 0 2.19 0.95
-7 3 0 4.31 1.17
6 -3 0 2.13 0.31
-6 3 0 3.67 0.82
-6 3 0 0.99 0.81
5 -3 0 18.87 1.39
5 -3 0 17.08 1.35
5 -3 0 16.67 1.18
5 -3 0 17.52 0.76
-5 3 0 18.69 1.4
4 -3 0 154.44 4.91
4 -3 0 150.98 4.85
4 -3 0 148.16 4.73
-4 3 0 148.29 4.89
3 -3 0 23.9 1.29
3 -3 0 25.62 1.27
3 -3 0 26.45 1.18
-3 3 0 25.73 1.29
-3 3 0 25.32 1.33
2 -3 0 91.83 2.94
2 -3 0 96 3.08
2 -3 0 92.71 3.04
-2 3 0 93.5 2.92
-2 3 0 90.1 3.04
-2 3 0 94.64 3.08
1 -3 0 22.91 0.94
1 -3 0 23.96 1.07
1 -3 0 23.93 1.08
-1 3 0 22.3 1.07
-1 3 0 23.11 0.93
-1 3 0 23.58 1.06
0 -3 0 2.96 0.41
0 -3 0 3.83 0.5
0 3 0 2.47 0.39
0 3 0 2.43 0.4
-1 -3 0 558.11 16.49
-1 -3 0 619.38 16.82
-1 -3 0 581.2 16.78
1 3 0 619.45 16.81
1 3 0 592.38 16.8
-2 -3 0 772.94 22.37
-2 -3 0 817.94 22.41
2 3 0 807.54 22.4
2 3 0 778.72 22.38
-3 -3 0 0.1 0.39
-3 -3 0 -0.01 0.38
3 3 0 -0.42 0.37
3 3 0 -0.21 0.12
3 3 0 -0.08 0.37
-4 -3 0 4.02 0.65
-4 -3 0 4.12 0.64
4 3 0 4.24 0.64
4 3 0 4.97 0.67
-5 -3 0 21.97 1.51
5 3 0 24.99 1.5
5 3 0 24.83 1.51
-6 -3 0 44.35 2.27
-6 -3 0 44.57 2.22
-6 -3 0 44.61 1.51
6 3 0 43.9 2.23
-7 -3 0 12.49 0.95
-7 -3 0 11.99 0.42
-7 -3 0 11.02 1.51
7 3 0 14.01 1.63
7 3 0 9.9 1.32
-8 -3 0 9.71 1.41
-8 -3 0 7.74 1.43
8 3 0 9.13 1.44
8 3 0 7.83 1.43
-9 -3 0 -1.22 1.4
-9 -3 0 -0.49 1.51
9 3 0 1.67 1.56
9 3 0 2.48 1.53
8 -4 0 3.19 1.52
8 -4 0 2.22 1.5
8 -4 0 3.02 1.15
-8 4 0 1.31 1.5
7 -4 0 0.54 0.35
7 -4 0 1.38 1.13
7 -4 0 0.3 0.81
7 -4 0 -0.05 1
6 -4 0 4.28 0.47
6 -4 0 5.3 0.9
-6 4 0 4.48 1.06
-6 4 0 5.81 0.99
5 -4 0 20.67 1.43
5 -4 0 22.36 1.64
-5 4 0 22.48 1.55
-5 4 0 23.48 1.64
4 -4 0 1.23 0.57
4 -4 0 0.96 0.59
-4 4 0 2.82 0.56
-4 4 0 1.78 0.64
3 -4 0 3.83 0.51
3 -4 0 4.05 0.63
3 -4 0 3.38 0.59
-3 4 0 3.92 0.66
-3 4 0 2.97 0.47
-3 4 0 3.46 0.6
2 -4 0 0.75 0.33
2 -4 0 0.31 0.41
-2 4 0 0.65 0.39
-2 4 0 0.04 0.4
-2 4 0 0.4 0.29
1 -4 0 127.04 3.94
1 -4 0 121.15 3.9
-1 4 0 123.41 3.91
-1 4 0 121.83 3.93
-1 4 0 119.51 3.73
0 -4 0 754.88 21.48
0 -4 0 784.18 21.51
0 4 0 740.51 21.46
0 4 0 777.29 21.51
0 4 0 744.41 21.3
-1 -4 0 16.37 0.96
-1 -4 0 14.08 0.93
1 4 0 13.17 0.95
1 4 0 14.32 0.55
1 4 0 14.21 0.93
-2 -4 0 140.4 4.31
-2 -4 0 132.55 3.87
-2 -4 0 130.08 4.26
2 4 0 138.43 4.3
2 4 0 130.99 4.29
-3 -4 0 4.14 0.62
-3 -4 0 4.93 0.66
3 4 0 4.64 0.65
3 4 0 5.03 0.67
3 4 0 4.62 0.31
-4 -4 0 52.82 2.27
-4 -4 0 56.69 2.29
4 4 0 53.55 2.27
4 4 0 54.94 1.64
4 4 0 54.76 2.3
-5 -4 0 22.12 1.51
-5 -4 0 22.96 1.46
5 4 0 17.62 1.46
-6 -4 0 7.56 1.07
-6 -4 0 7.08 1.06
6 4 0 7.4 1.08
6 4 0 5.56 0.98
-7 -4 0 3.57 1.08
-7 -4 0 1.09 0.89
7 4 0 0.42 0.97
-8 -4 0 4.68 1.4
-8 -4 0 4.18 1.26
8 4 0 6.89 1.45
8 4 0 4.49 1.4
-9 -4 0 4.26 1.8
9 4 0 7.45 1.8
7 -5 0 5.46 1.38
7 -5 0 5.65 1.11
-7 5 0 4.57 1.21
-7 5 0 5.08 1.46
6 -5 0 3.91 0.53
6 -5 0 4 1.09
6 -5 0 3.32 0.86
-6 5 0 2.9 0.98
-6 5 0 3.14 1.16
5 -5 0 2.98 0.88
5 -5 0 3.87 0.75
-5 5 0 3.02 0.95
-5 5 0 4.39 0.91
4 -5 0 37.94 2.01
4 -5 0 40.98 1.75
-4 5 0 35.53 1.92
-4 5 0 34.93 2.03
3 -5 0 23.26 1.27
3 -5 0 23.23 1.44
3 -5 0 21.58 1.42
-3 5 0 21.44 1.5
-3 5 0 22.78 1.23
-3 5 0 26.4 1.4
2 -5 0 0.22 0.5
2 -5 0 -0.11 0.32
-2 5 0 -0.42 0.29
-2 5 0 0.39 0.51
1 -5 0 16.82 1.11
1 -5 0 16.5 1.12
-1 5 0 15.95 1.16
-1 5 0 17.58 1.13
-1 5 0 17.85 0.92
0 -5 0 14.66 1.04
0 -5 0 16.87 1.08
0 5 0 15.57 1.1
0 5 0 15.74 0.67
0 5 0 14.84 1.06
0 5 0 16.19 0.89
-1 -5 0 17.46 1.13
-1 -5 0 17.37 1.15
1 5 0 17.84 0.68
1 5 0 17.97 1.17
1 5 0 17.95 1.12
-2 -5 0 3.27 0.31
-2 -5 0 3.03 0.6
-2 -5 0 2.56 0.57
2 5 0 2.72 0.59
2 5 0 2.09 0.58
-3 -5 0 23.76 1.46
-3 -5 0 27.18 1.49
-3 -5 0 26.71 0.99
3 5 0 27.57 1.54
3 5 0 26.91 1.55
-4 -5 0 8.56 1.14
4 5 0 6.68 0.9
4 5 0 7.8 0.43
-5 -5 0 0.44 0.69
-5 -5 0 1.49 0.7
5 5 0 1.42 0.77
5 5 0 -0.1 0.68
-6 -5 0 0.09 0.88
-6 -5 0 1.29 0.85
6 5 0 -0.22 0.82
6 5 0 0.81 0.82
-7 -5 0 4.74 1.23
-7 -5 0 4.69 1.13
7 5 0 4.02 1.19
7 5 0 3.23 1.17
-8 -5 0 6.07 1.35
-8 -5 0 2.93 1.47
8 5 0 6.71 1.58
8 5 0 3.49 1.51
7 -6 0 0.17 1.03
7 -6 0 2.02 2.25
7 -6 0 -1.52 1.39
7 -6 0 0.84 0.55
-7 6 0 -1.16 1.47
-7 6 0 0.41 1.24
6 -6 0 -0.97 1.05
6 -6 0 2 1.17
6 -6 0 -0.53 0.82
-6 6 0 -0.71 1.19
-6 6 0 -1.28 0.92
5 -6 0 22.76 1.7
5 -6 0 18.88 1.81
-5 6 0 21.12 1.88
-5 6 0 20.91 2.06
4 -6 0 3.19 0.72
4 -6 0 3.17 0.79
-4 6 0 2.97 0.83
-4 6 0 1.68 0.92
3 -6 0 10.77 1.3
-3 6 0 8.56 1.09
-3 6 0 10.17 1.2
-3 6 0 10.47 1.05
2 -6 0 61.07 2.6
-2 6 0 64.5 2.37
-2 6 0 65.2 2.62
-2 6 0 64.43 2.67
1 -6 0 69.58 2.76
1 -6 0 70.49 2.78
-1 6 0 70.74 2.81
-1 6 0 75.73 2.73
-1 6 0 70.76 2.51
0 -6 0 -0.56 0.48
0 -6 0 -0.02 0.49
0 6 0 -0.07 0.35
0 6 0 0 0.54
0 6 0 0.17 0.21
-1 -6 0 22.91 1.43
-1 -6 0 24 1.41
1 6 0 21.44 1.48
1 6 0 22.31 0.84
-2 -6 0 11.04 1.14
-2 -6 0 10.47 1.16
2 6 0 10.94 1.17
-3 -6 0 108.54 3.33
-3 -6 0 109.74 4.01
3 6 0 123.42 4.03
3 6 0 112.15 4.04
-4 -6 0 1.25 0.33
-4 -6 0 1.41 0.74
-4 -6 0 0.99 0.74
4 6 0 1.85 0.78
4 6 0 0.95 0.7
4 6 0 1.81 0.28
-5 -6 0 45.15 1.7
-5 -6 0 43.68 2.36
-5 -6 0 42.36 2.38
5 6 0 43.24 2.43
5 6 0 46.08 2.43
-6 -6 0 10.51 1.37
-6 -6 0 10.91 1.36
6 6 0 8.75 1.33
6 6 0 11.24 1.39
-7 -6 0 0.59 1.18
-7 -6 0 0.77 1.13
7 6 0 -0.77 1.12
7 6 0 -0.52 1.15
-8 -6 0 13.91 1.99
-8 -6 0 11.44 1.8
8 6 0 14.67 2.01
8 6 0 13.91 1.9
6 -7 0 3.57 1.38
6 -7 0 3.08 1.42
6 -7 0 3.71 1.14
-6 7 0 2.94 1.32
-6 7 0 5.95 1.64
5 -7 0 6.85 1.36
5 -7 0 8.36 1.34
5 -7 0 7.63 1.08
-5 7 0 7.05 1.26
-5 7 0 8.33 1.54
4 -7 0 5.98 1.13
-4 7 0 5.18 1.04
-4 7 0 3.01 1.11
3 -7 0 8.89 1.17
-3 7 0 8.1 1.09
-3 7 0 7.99 1.17
-3 7 0 8.84 1.12
-2 7 0 6.21 1.04
-2 7 0 5.68 0.71
1 -7 0 30.72 1.64
1 -7 0 24.72 1.88
-1 7 0 22.71 1.35
-1 7 0 24.84 1.65
-1 7 0 24.1 1.69
0 -7 0 29.77 1.84
0 7 0 30.97 1.81
0 7 0 31.03 1.48
0 7 0 31.5 1.18
0 7 0 31.21 1.87
-1 -7 0 7.68 0.89
-1 -7 0 5.5 0.92
1 7 0 6.72 0.95
1 7 0 7.35 0.99
-2 -7 0 57.42 2.44
-2 -7 0 49.77 2.55
2 7 0 51.65 2.46
2 7 0 53.55 2.54
-3 -7 0 9.79 1.31
-3 -7 0 8.07 1.29
3 7 0 8.78 1.14
3 7 0 10.13 1.17
-4 -7 0 49.2 2.53
-4 -7 0 47.54 1.64
-4 -7 0 52.85 2.56
4 7 0 48.86 2.55
4 7 0 48.2 1.61
-5 -7 0 33.95 1.39
-5 -7 0 33.23 2.28
-5 -7 0 38.15 2.35
5 7 0 33.18 1.13
5 7 0 33.52 2.28
5 7 0 34.77 2.39
-6 -7 0 5.09 1.3
-6 -7 0 4.55 0.66
-6 -7 0 5.76 1.3
6 7 0 5.66 1.35
6 7 0 4.75 1.3
-7 -7 0 0.57 0.7
-7 -7 0 -2.22 1.28
-7 -7 0 0.98 1.4
7 7 0 2.56 1.45
7 7 0 0.79 1.27
5 -8 0 1.41 1.4
5 -8 0 4.04 1.49
-5 8 0 1.64 1.48
-5 8 0 3.29 1.32
4 -8 0 0.39 1.2
4 -8 0 1.52 1.16
-4 8 0 -0.28 1.18
-4 8 0 1.92 1.09
3 -8 0 -0.05 0.99
3 -8 0 2.18 1.04
-3 8 0 0.72 0.96
-3 8 0 0.13 0.68
2 -8 0 6.11 1.13
-2 8 0 9.24 1.19
-2 8 0 9.52 1.22
-2 8 0 7.38 1.26
1 -8 0 11.28 1.42
-1 8 0 9.28 1.29
-1 8 0 10.33 0.8
-1 8 0 12.18 1.18
-1 8 0 11.47 1.3
0 -8 0 0.01 0.77
0 8 0 -0.77 0.47
0 8 0 0.26 0.3
0 8 0 0.56 0.74
0 8 0 0.2 0.81
-1 -8 0 2.53 0.91
-1 -8 0 3.68 0.91
1 8 0 4.78 0.71
1 8 0 3.34 1.02
1 8 0 5.6 1.03
-2 -8 0 1.5 0.83
-2 -8 0 0.81 0.86
2 8 0 2.83 0.96
-3 -8 0 14.79 1.82
-3 -8 0 15.28 1.68
3 8 0 12.43 1.65
3 8 0 15.56 1.8
-4 -8 0 55.13 2.92
-4 -8 0 55.38 2.85
4 8 0 53.63 2.97
4 8 0 51.31 2.85
-5 -8 0 5.59 1.32
-5 -8 0 6.23 1.3
-5 -8 0 7.34 0.68
5 8 0 6.09 1.38
5 8 0 5.64 0.53
5 8 0 4.8 1.31
-6 -8 0 1.86 1.35
-6 -8 0 0.72 0.5
-6 -8 0 0.67 1.34
6 8 0 0.72 1.31
6 8 0 2.93 1.37
4 -9 0 0.78 1.56
4 -9 0 5.54 1.91
-4 9 0 2.15 1.43
-4 9 0 3.31 1.63
3 -9 0 5.44 1.39
3 -9 0 5.04 1.5
-3 9 0 4.13 1.44
-3 9 0 2.54 1.22
-2 9 0 2.69 1.29
-2 9 0 2.19 1.1
-2 9 0 1.93 0.8
1 -9 0 0.66 1.08
1 -9 0 -0.21 1.26
-1 9 0 0.81 1.12
-1 9 0 -0.19 0.42
-1 9 0 0.9 0.81
-1 9 0 -1.11 0.98
0 -9 0 0.81 1.08
0 -9 0 -0.36 1.15
0 9 0 1.41 0.99
0 9 0 -0.03 1.08
0 9 0 0.22 0.63
0 9 0 0.51 0.37
-1 -9 0 26.9 2.23
1 9 0 22.36 1.61
1 9 0 27.75 2.27
1 9 0 22.3 2.06
-2 -9 0 16.38 1.91
-2 -9 0 18.06 1.98
2 9 0 17.8 2.08
2 9 0 18.37 2.07
-3 -9 0 1 1.05
-3 -9 0 -1.38 1.06
3 9 0 -1.36 0.99
3 9 0 -0.48 1.04
-4 -9 0 3.48 1.27
-4 -9 0 3.21 1.38
4 9 0 2.41 1.19
4 9 0 1.41 1.33
-5 -9 0 5.88 1.58
-5 -9 0 2.08 1.35
5 9 0 2.5 0.44
5 9 0 1.49 1.5
5 9 0 -0.21 1.39
2 -10 0 2.78 1.53
-2 10 0 3.29 1.43
-2 10 0 -1.03 1.57
-2 10 0 -0.36 1.35
1 -10 0 1.38 1.38
1 -10 0 1.41 1.41
-1 10 0 -2.02 1.19
-1 10 0 0.24 1.47
-1 10 0 0 0.52
-1 10 0 0.91 0.91
0 -10 0 -1.94 1.23
0 -10 0 1.1 1.27
0 10 0 0.19 1.33
0 10 0 2.1 1.29
0 10 0 0.16 0.39
0 10 0 -0.28 0.81
-1 -10 0 2.13 1.3
-1 -10 0 2.21 1.37
1 10 0 1.88 1.22
1 10 0 2.02 0.9
1 10 0 0.07 1.37
-2 -10 0 4.49 1.5
-2 -10 0 9.51 1.6
2 10 0 10.05 1.6
2 10 0 8.69 1.1
2 10 0 8.28 1.64
-3 -10 0 0.46 1.46
-3 -10 0 0.28 1.27
3 10 0 0.31 1.31
3 10 0 2.01 1.54
-4 -10 0 6.37 1.75
-4 -10 0 5.17 1.61
4 10 0 2.54 1.52
4 10 0 6.37 1.73
3 10 -1 12.32 2.05
3 10 -1 18.1 2.08
-3 -10 1 13.36 2.39
-3 -10 1 15.61 2.01
2 10 -1 2.38 1.21
2 10 -1 7.95 1.59
2 10 -1 5.37 1.71
-2 -10 1 4.11 1.6
-2 -10 1 6.53 1.58
1 10 -1 0.45 1.51
1 10 -1 -1.48 1.29
-1 -10 1 -0.39 1.27
-1 -10 1 -2.21 1.33
0 10 -1 0.21 1.25
0 10 -1 -0.93 1.43
0 -10 1 1.55 1.32
0 -10 1 -2.21 1.39
-1 10 -1 0.83 0.44
-1 10 -1 1.42 1.56
-1 10 -1 1.82 1.36
-1 10 -1 -0.04 1
1 -10 1 0.54 1.38
1 -10 1 -0.88 1.42
5 9 -1 0.82 1.53
5 9 -1 1.75 1.49
-5 -9 1 -0.17 1.56
-5 -9 1 -0.84 1.44
4 9 -1 -2.2 1.27
4 9 -1 -0.44 1.21
-4 -9 1 -1.31 1.21
-4 -9 1 0.1 1.35
3 9 -1 13.41 1.75
3 9 -1 15.7 2.08
-3 -9 1 17.44 2.2
-3 -9 1 13.7 1.75
2 9 -1 -0.05 1.03
2 9 -1 0.64 1.19
-2 -9 1 1.78 1.16
-2 -9 1 0.95 1.1
1 9 -1 1.16 1.01
1 9 -1 1.97 0.85
1 9 -1 3.63 1.24
-1 -9 1 3.27 1.16
0 9 -1 -1.07 1.09
0 9 -1 -0.89 0.69
0 9 -1 1.89 1.04
0 -9 1 -0.77 1.03
0 -9 1 -0.16 1.01
-1 9 -1 2.6 0.92
-1 9 -1 2.79 1.03
-1 9 -1 3.04 0.46
-1 9 -1 3.2 1.27
1 -9 1 5.37 1.29
1 -9 1 2.82 1.23
-2 9 -1 1.92 0.53
-2 9 -1 -1.08 1.07
-2 9 -1 -0.22 1.26
2 -9 1 1.03 1.17
-3 9 -1 15.78 1.84
-3 9 -1 17.87 2.42
-3 9 -1 15.65 1.75
3 -9 1 15.33 1.8
6 8 -1 0.29 1.44
6 8 -1 -1.79 1.46
-6 -8 1 0.08 1.37
-6 -8 1 0.67 0.43
-6 -8 1 1.11 1.55
5 8 -1 2.26 1.28
5 8 -1 0.48 1.29
-5 -8 1 -0.13 1.28
-5 -8 1 4.08 1.29
4 8 -1 6.02 0.54
4 8 -1 6.01 1.34
4 8 -1 4.56 1.19
-4 -8 1 7.25 1.35
-4 -8 1 5.6 1.31
3 8 -1 2 1.03
3 8 -1 1.51 0.99
-3 -8 1 0.45 0.97
2 8 -1 1.54 0.89
-2 -8 1 1.93 0.99
-2 -8 1 1.08 0.9
1 8 -1 5.25 0.79
1 8 -1 6.14 1.09
1 8 -1 5.72 1.12
-1 -8 1 5.59 1.06
0 8 -1 13.97 1.8
0 8 -1 15.16 0.68
0 8 -1 16.56 1.64
0 8 -1 14.66 1.29
0 -8 1 15.32 1.62
-1 8 -1 33.94 2.18
-1 8 -1 31.7 1.28
-1 8 -1 32.6 1.78
-1 8 -1 30.16 2.05
-2 8 -1 0.77 0.7
-2 8 -1 0.54 1.03
-2 8 -1 -1.05 0.8
2 -8 1 0.88 0.8
-3 8 -1 0.16 0.92
-3 8 -1 3.56 1.18
3 -8 1 1.88 1.06
3 -8 1 1.15 1.02
-4 8 -1 -2.06 0.99
-4 8 -1 -0.08 1.42
-4 8 -1 -0.13 0.85
4 -8 1 1.06 1.2
4 -8 1 0.42 1.08
-5 8 -1 39.79 2.91
-5 8 -1 44.53 3.09
5 -8 1 37.99 3.02
7 7 -1 0.39 1.57
7 7 -1 2.03 1.51
-7 -7 1 1.1 0.7
-7 -7 1 -2.35 1.43
-7 -7 1 0.49 1.53
6 7 -1 10.71 1.54
6 7 -1 5.69 1.48
-6 -7 1 9.01 1.56
-6 -7 1 6.17 0.68
-6 -7 1 7.99 1.46
5 7 -1 1.96 1.08
5 7 -1 0.11 1.08
-5 -7 1 1.7 1.13
-5 -7 1 1.16 0.35
-5 -7 1 0.74 1.06
4 7 -1 1.26 0.97
4 7 -1 0.84 0.84
-4 -7 1 0.92 0.96
-4 -7 1 -0.56 0.84
3 7 -1 24.82 1.88
3 7 -1 21.17 1.88
-3 -7 1 21.71 1.72
-3 -7 1 20.83 1.76
2 7 -1 61.28 2.84
2 7 -1 60.33 2.83
-2 -7 1 58.96 2.79
-2 -7 1 72.43 2.77
1 7 -1 2.47 0.77
1 7 -1 1.88 0.8
-1 -7 1 3.52 0.92
0 7 -1 2.65 0.61
0 7 -1 3.96 0.82
0 7 -1 3.57 0.4
0 7 -1 3.32 0.83
0 -7 1 4.36 0.83
-1 7 -1 5.68 0.95
-1 7 -1 5.15 1.05
-1 7 -1 6.52 0.79
1 -7 1 5.95 0.91
-2 7 -1 0.44 0.76
-2 7 -1 -0.27 0.52
-2 7 -1 1.41 0.76
2 -7 1 0.26 0.7
-3 7 -1 22.38 1.79
-3 7 -1 22.23 1.8
-3 7 -1 21.59 1.87
-4 7 -1 -0.36 0.96
-4 7 -1 0.59 0.87
4 -7 1 -0.32 0.82
-5 7 -1 3.19 1.13
-5 7 -1 5.17 1.3
5 -7 1 5.18 1.03
5 -7 1 4.32 1.22
5 -7 1 2.02 1.15
-6 7 -1 9.93 1.52
-6 7 -1 9.83 1.74
6 -7 1 6.49 0.79
6 -7 1 5.91 1.22
6 -7 1 7.13 1.51
6 -7 1 8.5 1.71
7 6 -1 9.65 1.66
7 6 -1 8.68 1.58
-7 -6 1 6.75 1.61
-7 -6 1 7.97 1.53
6 6 -1 1.32 1.08
6 6 -1 -0.19 1.03
-6 -6 1 1.5 1.11
-6 -6 1 1.18 1.11
5 6 -1 5.27 1.11
5 6 -1 5.76 1.08
-5 -6 1 4.31 0.51
-5 -6 1 3.11 1.03
4 6 -1 8.68 1.17
4 6 -1 8.98 1.16
4 6 -1 9.61 0.42
-4 -6 1 10.1 0.61
-4 -6 1 8.92 1.14
-4 -6 1 9.15 1.12
3 6 -1 21.52 1.59
3 6 -1 19.51 1.55
-3 -6 1 20.85 1.57
2 6 -1 78.13 3.11
2 6 -1 79.4 3.07
-2 -6 1 77.63 3.04
-2 -6 1 78.89 3.06
1 6 -1 32.85 1.83
1 6 -1 38.05 1.76
-1 -6 1 34.41 1.78
-1 -6 1 34.88 1.81
0 6 -1 21.93 1.44
0 6 -1 19.42 1.16
0 6 -1 20.55 0.77
0 -6 1 20.78 1.36
0 -6 1 21.18 1.38
-1 6 -1 13.19 1.05
-1 6 -1 12.12 1.22
-1 6 -1 14.87 1.18
1 -6 1 13.49 1.25
1 -6 1 14.36 1.25
-2 6 -1 73.2 2.73
-2 6 -1 74.63 3
-2 6 -1 76.14 2.96
2 -6 1 74.77 2.95
2 -6 1 78.67 2.96
-3 6 -1 88.4 3.54
-3 6 -1 95.96 3.35
-3 6 -1 94.74 3.56
3 -6 1 98.95 3.6
3 -6 1 94.11 3.6
-4 6 -1 32.55 2
-4 6 -1 30.49 1.76
-4 6 -1 33.64 1.97
4 -6 1 30.59 1.94
4 -6 1 28.85 1.71
-5 6 -1 10.95 1.36
-5 6 -1 9.46 1.21
5 -6 1 7.03 1.01
5 -6 1 7.41 1.15
-6 6 -1 3.36 1.32
-6 6 -1 1.18 0.98
6 -6 1 3.87 1.12
6 -6 1 2.02 0.56
6 -6 1 2.23 1.16
-7 6 -1 10.8 1.6
-7 6 -1 9.64 1.77
7 -6 1 9.59 1.42
7 -6 1 10.78 1.08
7 -6 1 7.05 1.67
8 5 -1 0.98 1.56
8 5 -1 -0.45 1.4
-8 -5 1 -0.01 0.37
-8 -5 1 2.38 1.6
-8 -5 1 0.47 1.36
7 5 -1 5.11 1.35
7 5 -1 7.77 1.43
-7 -5 1 6.07 1.42
-7 -5 1 6.33 1.34
6 5 -1 16.26 1.91
6 5 -1 14.05 1.84
-6 -5 1 21.64 1.97
-6 -5 1 16.23 1.83
5 5 -1 1.49 0.84
-5 -5 1 1.75 0.91
-5 -5 1 1.01 0.8
4 5 -1 70.77 2.94
4 5 -1 72.17 2.95
-4 -5 1 69.93 2.89
-4 -5 1 74.2 2.97
3 5 -1 59.08 2.45
-3 -5 1 58.19 2.42
-3 -5 1 55.27 1.76
-3 -5 1 56.4 2.4
2 5 -1 9.49 1.03
2 5 -1 12.37 1.02
-2 -5 1 8.19 1.01
-2 -5 1 8.76 0.97
1 5 -1 0.1 0.45
1 5 -1 -0.21 0.42
-1 -5 1 0.21 0.45
-1 -5 1 0.6 0.47
0 5 -1 84.94 2.54
0 5 -1 86.46 2.89
0 5 -1 87.55 3.09
0 5 -1 88.36 3.05
0 -5 1 85.71 3.03
0 -5 1 87.35 3.07
-1 5 -1 85.82 3.03
-1 5 -1 85.63 2.9
-1 5 -1 86.15 3.07
1 -5 1 85.76 3.05
1 -5 1 87.25 3.04
-2 5 -1 20.8 1.15
-2 5 -1 21.07 1.33
2 -5 1 21.11 1.32
2 -5 1 21.48 1.31
-3 5 -1 32 1.54
-3 5 -1 33.17 1.71
-3 5 -1 32.5 1.73
3 -5 1 34.24 1.7
3 -5 1 33.33 1.52
3 -5 1 32.67 1.71
-4 5 -1 42.47 2.06
-4 5 -1 44.09 1.93
-4 5 -1 41.98 2.13
4 -5 1 35.72 2.22
4 -5 1 40.23 1.91
4 -5 1 44.41 2.08
-5 5 -1 34.58 1.95
-5 5 -1 34.26 2.07
5 -5 1 33.33 1.95
-6 5 -1 10.18 1.34
-6 5 -1 8.7 1.21
6 -5 1 10.25 0.84
6 -5 1 9.81 1.3
6 -5 1 8.34 1.08
-7 5 -1 2.85 1.09
7 -5 1 0.83 1.14
7 -5 1 2.58 1.21
7 -5 1 1.72 0.95
7 -5 1 1.07 0.52
8 4 -1 6.48 1.57
8 4 -1 6.54 1.59
-8 -4 1 8.2 1.62
-8 -4 1 5.94 1.45
7 4 -1 11.77 1.52
7 4 -1 14.04 1.61
-7 -4 1 9.43 1.45
-7 -4 1 10.24 1.39
-7 -4 1 14.11 0.68
6 4 -1 9.22 1.24
6 4 -1 13.58 1.58
-6 -4 1 10.45 1.26
5 4 -1 21.58 1.61
5 4 -1 21.82 1.61
-5 -4 1 21.48 1.62
-5 -4 1 20.62 1.56
4 4 -1 127.67 4.65
4 4 -1 139.43 4.68
-4 -4 1 139.43 4.69
-4 -4 1 150.39 4.71
3 4 -1 2.73 0.63
3 4 -1 3.14 0.62
3 4 -1 3.12 0.21
-3 -4 1 3.19 0.62
-3 -4 1 2.57 0.58
2 4 -1 4.36 0.61
2 4 -1 2.75 0.55
-2 -4 1 3.4 0.57
-2 -4 1 4.15 0.26
-2 -4 1 4.01 0.59
1 4 -1 38.7 1.58
1 4 -1 36.26 1.59
-1 -4 1 36.44 1.56
-1 -4 1 35.54 1.56
0 4 -1 123.69 3.95
0 4 -1 125.58 3.98
0 -4 1 125.41 3.95
0 -4 1 122.38 3.95
-1 4 -1 69.8 2.5
-1 4 -1 70.09 2.53
-1 4 -1 71.83 2.44
1 -4 1 73.74 2.53
1 -4 1 75.4 2.56
-2 4 -1 12.43 0.93
-2 4 -1 12.47 0.82
-2 4 -1 13.61 0.93
2 -4 1 11.04 0.93
2 -4 1 11.09 0.81
-3 4 -1 158.05 5.12
-3 4 -1 159.86 5.09
-3 4 -1 156.9 4.98
3 -4 1 161.12 5.04
3 -4 1 165.46 5.12
3 -4 1 165.23 5.11
-4 4 -1 27.95 1.56
-4 4 -1 26.96 1.51
4 -4 1 24.98 1.48
4 -4 1 27.71 1.52
-5 4 -1 6.42 0.96
-5 4 -1 9.01 1.13
5 -4 1 8.71 1.04
5 -4 1 5.87 0.89
5 -4 1 6.21 0.89
-6 4 -1 6.93 1.07
-6 4 -1 5.32 0.98
6 -4 1 8.15 1.11
6 -4 1 7.51 0.97
-7 4 -1 5.74 1.27
-7 4 -1 4.39 1.05
7 -4 1 6.03 1.03
7 -4 1 5.16 0.64
7 -4 1 5.07 1.18
-8 4 -1 3.51 1.24
-8 4 -1 4.18 1.59
8 -4 1 2.98 0.47
8 -4 1 3.49 1.47
8 -4 1 1.63 1.5
8 -4 1 3.75 1.16
8 3 -1 0.29 1.28
8 3 -1 -0.19 1.24
-8 -3 1 2.31 1.36
-8 -3 1 -1.14 1.15
7 3 -1 17.41 1.82
7 3 -1 13.61 1.55
-7 -3 1 13.54 1.71
-7 -3 1 11.99 1.47
6 3 -1 30.05 1.94
6 3 -1 29.72 1.93
-6 -3 1 30.24 1.91
-6 -3 1 29.75 1.96
4 3 -1 13.17 1.13
4 3 -1 15.62 1.15
-4 -3 1 14.21 1.11
-4 -3 1 13.28 1.14
3 3 -1 19.5 1.2
3 3 -1 22.29 1.23
-3 -3 1 21.33 1.21
-3 -3 1 23.34 1.23
2 3 -1 0.08 0.37
2 3 -1 0.05 0.36
-2 -3 1 0.37 0.36
-2 -3 1 -0.28 0.33
1 3 -1 0.57 0.34
1 3 -1 0.29 0.35
-1 -3 1 0.84 0.35
-1 -3 1 0.72 0.35
0 3 -1 560.04 15.56
0 3 -1 537.85 15.52
0 -3 1 542.4 15.52
0 -3 1 553.85 15.54
-1 3 -1 0.15 0.31
-1 3 -1 0.29 0.29
-1 3 -1 0.11 0.25
1 -3 1 0.42 0.32
1 -3 1 0.04 0.29
-2 3 -1 73.97 2.48
-2 3 -1 72.17 2.43
-2 3 -1 75.02 2.52
2 -3 1 70.94 2.44
2 -3 1 75.77 2.51
-3 3 -1 99.86 3.29
-3 3 -1 96.56 3.24
-3 3 -1 100.1 3.2
3 -3 1 100.23 3.23
3 -3 1 95.94 3.23
3 -3 1 96.79 3.26
-4 3 -1 14.99 1.1
4 -3 1 15.17 1.13
4 -3 1 14.17 1.03
4 -3 1 13.87 0.98
-5 3 -1 16.64 1.34
5 -3 1 15.39 1.34
5 -3 1 16.19 1.29
5 -3 1 15.76 0.78
5 -3 1 14.87 1.14
-6 3 -1 25.16 1.78
6 -3 1 24.67 1.77
6 -3 1 23.13 1.01
-7 3 -1 14.57 1.82
7 -3 1 11.78 1.35
7 -3 1 11.53 1.43
7 -3 1 14.49 0.76
8 -3 1 2.49 1.24
8 -3 1 -0.54 0.89
8 -3 1 3.18 1.28
9 2 -1 8.55 2.15
9 2 -1 6.81 1.81
-9 -2 1 8.66 1.75
-9 -2 1 8.78 1.93
8 2 -1 0.05 1.15
8 2 -1 0.49 1.13
-8 -2 1 0.68 1.08
-8 -2 1 1.05 1.26
7 2 -1 9.97 1.31
7 2 -1 12.28 1.41
-7 -2 1 12.02 1.01
-7 -2 1 8.37 1.3
-7 -2 1 10.82 1.35
6 2 -1 4.38 0.92
-6 -2 1 4.19 0.96
-6 -2 1 6.47 0.66
-6 -2 1 6.6 0.97
5 2 -1 93.13 3.47
5 2 -1 94.46 3.48
-5 -2 1 96.33 3.5
-5 -2 1 95.96 2.8
4 2 -1 28.79 1.49
4 2 -1 26.95 1.45
-4 -2 1 30.66 1.49
-4 -2 1 28.98 1.5
-4 -2 1 29.35 0.93
3 2 -1 2.37 0.49
3 2 -1 2.83 0.5
-3 -2 1 3.48 0.52
-3 -2 1 3.48 0.53
2 2 -1 80.6 2.7
2 2 -1 84.26 2.73
-2 -2 1 85.52 2.72
-2 -2 1 79.85 2.69
1 2 -1 484.79 13.74
1 2 -1 488.3 13.74
-1 -2 1 489.71 13.74
-1 -2 1 480.71 13.74
0 2 -1 329.24 9.44
0 2 -1 332.51 9.43
0 -2 1 331.82 9.44
0 -2 1 334.06 9.43
-1 2 -1 375.64 10.79
-1 2 -1 389.27 10.79
-1 2 -1 371.57 10.78
1 -2 1 384.76 10.8
1 -2 1 388.3 10.8
1 -2 1 376.09 10.79
-2 2 -1 213.63 6.39
-2 2 -1 219.92 6.42
-2 2 -1 219.27 6.43
2 -2 1 215.98 6.4
2 -2 1 224.6 6.43
2 -2 1 225.9 6.43
-3 2 -1 496.76 14.11
-3 2 -1 492.89 14.16
3 -2 1 488.3 14.12
3 -2 1 514.4 14.18
3 -2 1 487.5 14.13
-4 2 -1 12.67 0.94
-4 2 -1 14.87 0.99
4 -2 1 13.01 0.94
4 -2 1 13.62 0.61
4 -2 1 12.21 0.88
4 -2 1 13.29 1
-5 2 -1 6.63 0.89
-5 2 -1 5.42 0.74
5 -2 1 6.1 0.79
5 -2 1 6.61 0.47
5 -2 1 7.17 0.91
5 -2 1 5.86 0.68
-6 2 -1 7.57 0.97
-6 2 -1 4.98 0.84
6 -2 1 5.32 0.89
6 -2 1 6.01 0.46
6 -2 1 5.08 0.76
6 -2 1 6.36 0.91
-8 2 -1 19.92 2.12
-8 2 -1 20.28 1.98
8 -2 1 19.59 1.78
8 -2 1 15.95 2.17
8 -2 1 19.57 2.14
-9 2 -1 5.57 1.69
-9 2 -1 4.01 1.42
9 -2 1 3.87 1.24
9 -2 1 5.63 1.76
9 1 -1 0.88 1.57
9 1 -1 0.46 1.73
-9 -1 1 4.29 1.79
-9 -1 1 5.16 1.53
8 1 -1 12.36 1.62
8 1 -1 11.43 1.6
-8 -1 1 11.32 1.62
-8 -1 1 12.03 1.51
7 1 -1 18.37 1.77
7 1 -1 20.06 1.83
-7 -1 1 17.29 2.07
-7 -1 1 18.78 1.76
6 1 -1 90.43 4.41
6 1 -1 102.2 3.61
-6 -1 1 93.76 3.6
-6 -1 1 92.29 3.63
-6 -1 1 92.17 2.96
5 1 -1 89.88 3.27
5 1 -1 88.43 3.26
-5 -1 1 86.9 3.28
-5 -1 1 89.1 2.7
4 1 -1 43.63 1.87
4 1 -1 43.34 1.84
-4 -1 1 46.08 1.41
-4 -1 1 43.5 1.83
-4 -1 1 42.67 1.26
-4 -1 1 45.13 1.89
3 1 -1 437.74 12.44
3 1 -1 432.2 12.45
-3 -1 1 431.42 12.43
-3 -1 1 427.89 12.45
2 1 -1 31.6 1.28
2 1 -1 31.97 1.28
-2 -1 1 33.14 0.95
-2 -1 1 34.41 1.29
-2 -1 1 31.84 1.28
1 1 -1 46.19 1.55
1 1 -1 47.02 1.56
-1 -1 1 48.39 1.56
-1 -1 1 45.42 1.55
0 1 -1 36.94 1.08
0 1 -1 38.12 1.21
0 1 -1 38.82 1.22
0 -1 1 38.36 1.22
0 -1 1 37.69 1.21
-1 1 -1 46.82 1.46
-1 1 -1 44.95 1.49
-1 1 -1 47.84 1.48
1 -1 1 48.9 1.51
1 -1 1 45.09 1.46
-2 1 -1 395.6 11.08
-2 1 -1 396.01 11.07
-2 1 -1 392.65 11.08
2 -1 1 382.57 11.08
2 -1 1 392.51 11.08
2 -1 1 390.12 11.06
-3 1 -1 82.39 2.64
-3 1 -1 81.3 2.66
3 -1 1 83.16 2.64
3 -1 1 78.86 2.61
3 -1 1 83.39 2.66
3 -1 1 79.58 2.39
-4 1 -1 151.26 4.72
-4 1 -1 152.35 4.75
4 -1 1 157.49 4.71
4 -1 1 148.42 4.74
4 -1 1 153.07 4.73
4 -1 1 152.11 4.36
-5 1 -1 16.78 1.23
5 -1 1 16.75 0.66
5 -1 1 20.46 1.06
5 -1 1 18.23 1.21
5 -1 1 18.27 1.2
-6 1 -1 5.78 0.82
-6 1 -1 5.21 0.84
6 -1 1 3.29 0.74
6 -1 1 4.81 0.8
6 -1 1 5.66 0.73
-7 1 -1 38.5 2.28
-7 1 -1 39.65 2.15
7 -1 1 39.18 2.05
7 -1 1 46.15 2.18
-8 1 -1 1.58 0.95
-8 1 -1 0.89 1.1
8 -1 1 1.13 1.01
8 -1 1 0.25 0.71
8 -1 1 0.13 0.98
-9 1 -1 0.41 1.21
-9 1 -1 0.49 1.45
9 -1 1 -1.05 1.33
9 -1 1 -1.53 0.88
9 -1 1 2.89 1.51
9 0 -1 2.34 1.87
9 0 -1 3.01 1.16
9 0 -1 0.97 1.55
-9 0 1 2.87 1.66
-9 0 1 3.14 1.51
8 0 -1 0.7 1.13
8 0 -1 2.86 1.22
-8 0 1 2.31 1.27
-8 0 1 0.12 1.04
7 0 -1 28.76 2.06
7 0 -1 29.26 2.07
-7 0 1 29.68 2.02
-6 0 1 2.12 0.84
-6 0 1 2.61 0.78
5 0 -1 95.83 3.47
5 0 -1 93.51 3.43
-5 0 1 98.44 3.49
4 0 -1 83.6 2.98
4 0 -1 86.14 3.01
-4 0 1 85.52 2.99
-4 0 1 86.71 3.02
3 0 -1 34.72 1.47
3 0 -1 35.41 1.47
-3 0 1 35.84 1.48
-3 0 1 35 1.47
2 0 -1 281.55 8.02
2 0 -1 271.06 8.02
-2 0 1 285.95 8.04
-2 0 1 274.33 8.01
1 0 -1 69.32 2.14
1 0 -1 70.83 2.16
1 0 -1 69.55 1.98
-1 0 1 68.97 1.99
-1 0 1 69.55 2.14
-1 0 1 73.1 2.16
0 0 -1 2.94 0.23
-1 0 -1 253.26 7.15
-1 0 -1 249.65 7.1
-1 0 -1 276.92 7.12
-1 0 -1 262.73 7.1
-1 0 -1 246.44 7.11
1 0 1 255.01 7.1
1 0 1 256.57 7.16
1 0 1 236.21 7.11
-2 0 -1 1.36 0.25
-2 0 -1 1.61 0.27
-2 0 -1 2.09 0.19
2 0 1 2.2 0.29
2 0 1 1.93 0.21
2 0 1 1.74 0.26
2 0 1 2.03 0.26
-3 0 -1 159.76 4.69
-3 0 -1 155.33 4.69
3 0 1 159.54 4.66
3 0 1 156.33 4.43
3 0 1 157.36 4.7
3 0 1 152.75 4.68
-4 0 -1 1.79 0.44
-4 0 -1 2.04 0.43
4 0 1 2.29 0.46
4 0 1 2.04 0.4
4 0 1 1.91 0.47
-5 0 -1 9.93 0.91
-5 0 -1 10.26 1
5 0 1 9.18 0.94
5 0 1 10.37 0.95
5 0 1 10.58 0.85
-6 0 -1 11.21 1.19
-6 0 -1 12.81 1.14
6 0 1 11.44 1.18
6 0 1 11.54 1.15
6 0 1 11.9 1.03
-7 0 -1 45.28 2.4
-7 0 -1 49.3 2.42
7 0 1 47.13 2.22
7 0 1 53.77 2.41
-8 0 -1 0.81 1.06
-8 0 -1 0.66 0.87
8 0 1 0.1 0.91
8 0 1 0.68 1
8 0 1 -0.22 0.69
-9 0 -1 2.02 1.4
-9 0 -1 2.57 1.26
9 0 1 2.33 1.4
9 0 1 3.46 1.47
9 0 1 1.37 0.95
8 -1 -1 6.02 1.06
8 -1 -1 6.41 1.42
8 -1 -1 6.79 1.45
-8 1 1 6.53 1.33
-8 1 1 7.64 1.51
7 -1 -1 -0.58 0.86
7 -1 -1 -0.24 0.9
7 -1 -1 -0.37 0.62
-7 1 1 0.41 0.84
6 -1 -1 17.58 1.56
-6 1 1 20.52 1.67
-6 1 1 21.39 1.55
5 -1 -1 24.37 1.5
5 -1 -1 23.28 1.48
-5 1 1 25.39 1.57
4 -1 -1 9.14 0.89
4 -1 -1 8.76 0.88
-4 1 1 7.28 0.84
-4 1 1 5.29 0.71
3 -1 -1 99.78 3.29
3 -1 -1 102.17 3.33
-3 1 1 102.56 3.3
-3 1 1 101.43 3.31
2 -1 -1 104.36 3.23
2 -1 -1 102.85 3.21
-2 1 1 103.32 3.21
-2 1 1 102.61 3.23
1 -1 -1 499.08 13.95
1 -1 -1 496.91 13.96
-1 1 1 494.38 13.95
-1 1 1 498.89 13.97
0 -1 -1 22.46 0.73
0 -1 -1 22.36 0.73
0 1 1 20.74 0.74
0 1 1 19.22 0.74
-1 -1 -1 97.07 2.86
-1 -1 -1 98.23 2.86
-1 -1 -1 101.64 2.81
1 1 1 99.55 2.87
1 1 1 97.02 2.81
1 1 1 100.35 2.87
-2 -1 -1 375.8 10.61
-2 -1 -1 372.07 10.61
-2 -1 -1 389.75 10.5
2 1 1 364.56 10.6
2 1 1 372.36 10.49
2 1 1 379.64 10.62
-3 -1 -1 27.29 0.95
-3 -1 -1 28.96 1.16
-3 -1 -1 26.25 1.16
3 1 1 26.89 1.14
3 1 1 28.32 1.17
-4 -1 -1 163.87 5
-4 -1 -1 167.84 4.74
-4 -1 -1 160.1 4.6
-4 -1 -1 168.17 5.04
4 1 1 159.65 5.01
4 1 1 158.09 4.99
-5 -1 -1 15.63 1.13
-5 -1 -1 17.06 1.09
-5 -1 -1 15.9 0.84
-5 -1 -1 16.06 0.54
5 1 1 16.01 1.11
5 1 1 15.19 1.08
-6 -1 -1 34.73 1.87
-6 -1 -1 36.98 1.83
6 1 1 34.18 1.78
6 1 1 33.98 1.79
-7 -1 -1 56.5 2.61
-7 -1 -1 55.54 2.66
7 1 1 54.94 2.71
-8 -1 -1 19.58 2.06
-8 -1 -1 19.43 1.89
8 1 1 15.5 1.53
8 1 1 18.24 1.96
-9 -1 -1 1 1.22
-9 -1 -1 0.06 1.35
9 1 1 3.18 1.34
9 1 1 1.42 0.96
9 1 1 1.75 1.35
8 -2 -1 0.8 1.23
8 -2 -1 0.87 1.31
8 -2 -1 -1.98 0.8
-8 2 1 1.1 1.31
-8 2 1 0.09 1.12
7 -2 -1 6.51 0.92
7 -2 -1 5.76 1.32
7 -2 -1 8.15 1.26
-7 2 1 5.9 1.55
-7 2 1 6.07 1.12
6 -2 -1 3.13 0.91
6 -2 -1 1.94 0.59
-6 2 1 2.7 0.9
-6 2 1 1.39 1.1
5 -2 -1 0.83 0.59
5 -2 -1 0.3 0.57
5 -2 -1 0.23 0.1
-5 2 1 0.5 0.6
-5 2 1 0.62 0.49
4 -2 -1 34.69 1.45
4 -2 -1 34.13 1.61
4 -2 -1 32.3 1.61
-4 2 1 32.84 1.57
-4 2 1 33.19 1.64
3 -2 -1 349.76 10.06
3 -2 -1 357.27 10.24
3 -2 -1 343.73 10.19
-3 2 1 349.43 10.23
-3 2 1 349.78 10.2
2 -2 -1 122.91 3.82
2 -2 -1 123.84 3.67
2 -2 -1 124.09 3.81
-2 2 1 125 3.81
-2 2 1 118.08 3.81
1 -2 -1 324.36 9.42
1 -2 -1 325.74 9.3
1 -2 -1 336.07 9.46
-1 2 1 329.85 9.44
-1 2 1 337.44 9.46
0 -2 -1 1.57 0.29
0 -2 -1 1.26 0.28
0 -2 -1 1.12 0.13
0 2 1 1.3 0.28
0 2 1 1.44 0.29
0 2 1 1.57 0.19
-1 -2 -1 54.08 1.75
-1 -2 -1 53.32 1.64
-1 -2 -1 52.43 1.75
1 2 1 53.02 1.75
1 2 1 55.5 1.64
1 2 1 56.05 1.76
-2 -2 -1 251.08 7.02
-2 -2 -1 245.47 7
2 2 1 240 7.01
2 2 1 239.94 7
2 2 1 235.07 6.81
-3 -2 -1 50.71 1.51
-3 -2 -1 48.91 1.78
-3 -2 -1 47.81 1.77
3 2 1 48.87 1.79
3 2 1 48.91 1.78
3 2 1 46.51 1.5
-4 -2 -1 25.84 1.26
-4 -2 -1 24.72 1.28
-4 -2 -1 26.98 0.97
4 2 1 25.71 1.26
4 2 1 26.66 1.31
-5 -2 -1 0.55 0.43
-5 -2 -1 1.19 0.37
-5 -2 -1 1.29 0.54
5 2 1 0.73 0.5
5 2 1 1.12 0.5
-6 -2 -1 12.55 1.18
-6 -2 -1 12.62 0.5
-6 -2 -1 12.05 1.25
6 2 1 12.86 1.21
6 2 1 13.66 1.27
-7 -2 -1 52.49 2.57
-7 -2 -1 53.25 2.51
-8 -2 -1 8.19 1.23
-8 -2 -1 9.89 2.18
8 2 1 10.18 1.36
-9 -2 -1 1.33 1.18
-9 -2 -1 1.23 1.38
9 2 1 1.38 0.93
9 2 1 -0.25 1.28
9 2 1 0.7 1.32
8 -3 -1 0.95 0.94
8 -3 -1 1.12 1.38
8 -3 -1 1.22 1.51
-8 3 1 1.9 1.44
-8 3 1 -1.53 1.14
7 -3 -1 34.55 2.53
7 -3 -1 33.38 2
7 -3 -1 33.62 2.43
-7 3 1 33.94 2.43
-7 3 1 30.1 2.22
6 -3 -1 38.24 1.24
6 -3 -1 43.33 2.22
-6 3 1 41.5 2.26
-6 3 1 35.38 2.22
5 -3 -1 -0.15 0.63
5 -3 -1 0.52 0.45
5 -3 -1 0.7 0.62
-5 3 1 1.01 0.62
-5 3 1 0.65 0.68
4 -3 -1 1.03 0.53
4 -3 -1 1.39 0.56
4 -3 -1 1.32 0.4
-4 3 1 1.27 0.57
3 -3 -1 11.49 0.78
3 -3 -1 11.6 0.93
3 -3 -1 12.67 0.98
-3 3 1 12.59 0.99
2 -3 -1 131.73 4.17
2 -3 -1 131.22 4.13
2 -3 -1 127.99 3.96
-2 3 1 129.98 4.16
-2 3 1 138.14 4.17
1 -3 -1 15.49 0.86
1 -3 -1 14.57 0.87
1 -3 -1 15.58 0.68
-1 3 1 15.56 0.87
-1 3 1 14.93 0.88
-1 3 1 15.76 0.68
0 -3 -1 58.35 1.95
0 -3 -1 55.06 1.91
0 3 1 57.39 1.93
0 3 1 55.43 1.94
0 3 1 55.93 1.72
-1 -3 -1 11.15 0.7
-1 -3 -1 10.39 0.48
-1 -3 -1 10.51 0.7
1 3 1 10.1 0.48
1 3 1 10.38 0.69
1 3 1 10.39 0.7
-2 -3 -1 81.66 2.7
-2 -3 -1 82.87 2.71
-2 -3 -1 84.13 2.51
2 3 1 83.48 2.72
2 3 1 82.55 2.72
-3 -3 -1 451.19 12.56
-3 -3 -1 434.13 12.54
3 3 1 454.99 12.58
3 3 1 412.05 12.19
3 3 1 429.17 12.53
-4 -3 -1 8.41 0.84
-4 -3 -1 9.2 0.87
4 3 1 8.16 0.84
4 3 1 8.84 0.46
4 3 1 9.45 0.87
-5 -3 -1 42.42 2.01
-5 -3 -1 49.74 1.59
-5 -3 -1 49.21 2.09
5 3 1 51.01 2.13
5 3 1 46.62 2.07
-6 -3 -1 2.86 0.7
-6 -3 -1 1.92 0.75
-6 -3 -1 2.87 0.52
6 3 1 2.42 0.75
6 3 1 2.86 0.75
-7 -3 -1 26.54 1.85
-7 -3 -1 24.27 0.88
-7 -3 -1 24.63 1.95
-8 -3 -1 2.74 1.15
-8 -3 -1 1.24 0.96
8 3 1 2.76 1.1
8 3 1 3.77 1.18
-9 -3 -1 3.62 1.48
-9 -3 -1 1.45 1.29
9 3 1 3.88 1.46
9 3 1 0.92 1.42
8 -4 -1 -1.85 1.55
8 -4 -1 -1.83 1.5
8 -4 -1 2.16 1.13
-8 4 1 -1.45 1.53
7 -4 -1 -1.22 1.35
7 -4 -1 -0.32 0.25
7 -4 -1 -0.85 0.77
7 -4 -1 1.12 1.16
-7 4 1 0.27 1.16
6 -4 -1 5.31 0.55
6 -4 -1 5.23 1.14
6 -4 -1 6.22 0.9
-6 4 1 7.09 1.19
5 -4 -1 0.35 0.5
5 -4 -1 0.43 1.1
-5 4 1 0.39 0.73
4 -4 -1 0.17 0.58
4 -4 -1 -0.43 0.54
-4 4 1 0.18 0.59
3 -4 -1 24.35 1.37
3 -4 -1 22.17 1.32
3 -4 -1 22.89 1.13
-3 4 1 22.49 1.35
-3 4 1 23.34 1.32
2 -4 -1 41.66 1.78
2 -4 -1 42.91 1.81
2 -4 -1 42.97 1.61
-2 4 1 45.75 1.84
-2 4 1 44.93 1.86
1 -4 -1 48.02 1.86
1 -4 -1 46.71 1.84
1 -4 -1 46.32 1.62
-1 4 1 48.94 1.85
-1 4 1 47.55 1.88
-1 4 1 47.26 1.59
0 -4 -1 564.08 15.45
0 -4 -1 536.4 15.4
0 4 1 519.88 15.15
0 4 1 519.49 15.13
0 4 1 550.23 15.43
0 4 1 554.34 15.42
-1 -4 -1 150.76 4.67
-1 -4 -1 150.29 4.66
1 4 1 150.53 4.68
1 4 1 153.05 4.67
1 4 1 151.25 4.38
-2 -4 -1 63.73 2.29
-2 -4 -1 61.88 1.96
-2 -4 -1 63.62 2.28
2 4 1 64.44 2.29
2 4 1 61.56 2.27
-3 -4 -1 137.18 4.4
-3 -4 -1 135.18 4.41
-3 -4 -1 136.85 4.09
3 4 1 137.74 4.41
3 4 1 136.47 3.99
3 4 1 144.29 4.45
-4 -4 -1 29.63 1.49
-4 -4 -1 28.21 1.49
4 4 1 27.94 1.49
4 4 1 29.27 1.53
4 4 1 26.72 0.98
-5 -4 -1 0.11 0.54
5 4 1 0.59 0.56
5 4 1 -0.52 0.5
-6 -4 -1 38.52 2.02
-6 -4 -1 37.34 2.05
6 4 1 34.03 2.36
-7 -4 -1 0.06 0.8
-7 -4 -1 -1.81 0.81
7 4 1 2.43 0.94
-8 -4 -1 4.96 1.28
-8 -4 -1 8.38 1.32
8 4 1 4.88 1.32
8 4 1 7.39 1.41
-9 -4 -1 2.11 1.31
-9 -4 -1 4.11 1.59
9 4 1 2.58 1.57
9 4 1 2 1.53
7 -5 -1 -0.29 1.33
7 -5 -1 -0.04 0.4
7 -5 -1 0.14 0.93
7 -5 -1 -0.72 1.26
-7 5 1 0.74 1.14
-7 5 1 -0.47 1.32
6 -5 -1 6.37 1.32
6 -5 -1 7.27 1.28
6 -5 -1 4.74 0.93
-6 5 1 6.5 1.27
-6 5 1 4.41 1.06
5 -5 -1 2 0.68
-5 5 1 2.17 0.95
-5 5 1 3.56 0.91
4 -5 -1 48.84 2.15
4 -5 -1 61.49 2.4
-4 5 1 50.71 2.45
-4 5 1 50.79 2.4
3 -5 -1 3.09 0.67
3 -5 -1 1.2 0.61
3 -5 -1 2.32 0.49
-3 5 1 2.99 0.73
2 -5 -1 0.02 0.47
2 -5 -1 0.22 0.32
-2 5 1 -0.23 0.49
-2 5 1 0.47 0.47
-2 5 1 0.18 0.3
1 -5 -1 28.1 1.43
1 -5 -1 28.68 1.45
-1 5 1 26.35 1.45
-1 5 1 29.31 1.45
-1 5 1 29.25 1.17
0 -5 -1 13.84 1.03
0 -5 -1 14.23 1.02
0 5 1 14.6 0.68
0 5 1 13.71 1
0 5 1 14.63 1.06
0 5 1 14.16 0.74
-1 -5 -1 27.8 1.4
-1 -5 -1 28.87 1.41
1 5 1 28.62 1.41
1 5 1 28.88 1.04
1 5 1 29.83 1.45
-2 -5 -1 24.29 1.3
-2 -5 -1 23.06 0.9
-2 -5 -1 23.79 1.29
2 5 1 23.29 1.32
2 5 1 23.93 1.3
-3 -5 -1 0.47 0.48
-3 -5 -1 0.99 0.28
-3 -5 -1 0.65 0.47
3 5 1 1.14 0.49
3 5 1 0.96 0.53
-4 -5 -1 22.31 1.43
-4 -5 -1 22.67 1.03
4 5 1 22.19 0.86
4 5 1 21.68 1.42
4 5 1 23.23 1.46
-5 -5 -1 3.64 0.78
-5 -5 -1 3.24 0.8
5 5 1 3.92 0.81
5 5 1 2.57 0.31
-6 -5 -1 -0.24 0.75
6 5 1 0.92 0.77
6 5 1 -0.15 0.78
-7 -5 -1 17.51 2
-7 -5 -1 18.04 1.84
7 5 1 23.08 1.95
7 5 1 20.08 1.93
-8 -5 -1 19.39 2.12
-8 -5 -1 23.99 2.37
8 5 1 22.4 2.51
8 5 1 22.37 2.48
-9 -5 -1 -3.81 1.59
9 5 1 1.35 1.65
7 -6 -1 0.46 1.51
7 -6 -1 1.03 1.03
7 -6 -1 -1.15 0.47
-7 6 1 0.52 1.37
-7 6 1 -0.7 1.56
6 -6 -1 11.84 1.61
6 -6 -1 12.36 1.56
6 -6 -1 15.7 2.06
-6 6 1 12.25 1.55
-6 6 1 11.53 1.65
5 -6 -1 1.88 0.72
5 -6 -1 2.8 1.02
-5 6 1 3.82 1.71
-5 6 1 2.19 0.91
4 -6 -1 165.12 5.4
4 -6 -1 178.63 5.71
-4 6 1 161.59 5.69
-4 6 1 164.77 5.78
3 -6 -1 107.12 3.55
3 -6 -1 114.69 3.85
-3 6 1 105.23 3.89
-3 6 1 97.39 3.89
2 -6 -1 1.42 0.63
2 -6 -1 0.69 0.39
-2 6 1 1.43 0.39
-2 6 1 1.46 0.7
-2 6 1 1.18 0.65
1 -6 -1 10.89 1.09
1 -6 -1 11.25 1.1
-1 6 1 9.97 0.75
-1 6 1 10.72 1.14
0 -6 -1 0.23 0.53
0 -6 -1 0.09 0.52
0 6 1 0.57 0.26
0 6 1 0.49 0.56
0 6 1 0.08 0.3
-1 -6 -1 40.02 1.87
-1 -6 -1 40.04 1.85
1 6 1 42.13 1.88
1 6 1 40.5 1.41
1 6 1 40.18 1.93
-2 -6 -1 1.66 0.61
-2 -6 -1 1.13 0.57
2 6 1 0.46 0.57
2 6 1 -0.51 0.51
-3 -6 -1 9.12 0.58
-3 -6 -1 5.77 0.85
-3 -6 -1 8.76 1.11
3 6 1 8.31 1.13
-4 -6 -1 36 1.39
-4 -6 -1 35.1 1.9
-4 -6 -1 34.7 1.94
4 6 1 36.33 1.27
4 6 1 35.79 1.99
-5 -6 -1 -0.29 0.72
-5 -6 -1 0.76 0.42
-5 -6 -1 0.07 0.69
5 6 1 0.25 0.68
5 6 1 0.02 0.26
5 6 1 -0.63 0.76
-6 -6 -1 20.59 1.79
-6 -6 -1 16.99 1.17
-6 -6 -1 19.08 1.83
6 6 1 16.9 1.77
6 6 1 18.38 1.87
-7 -6 -1 5.37 1.2
-7 -6 -1 5.9 1.24
7 6 1 4.92 1.28
7 6 1 5.58 1.26
-8 -6 -1 1.92 1.43
-8 -6 -1 0.49 1.24
8 6 1 3.3 1.44
8 6 1 1.46 1.44
6 -7 -1 0.17 1.38
6 -7 -1 -1.01 0.97
6 -7 -1 1.63 1.42
-6 7 1 -1.14 1.5
-6 7 1 0.2 1.23
5 -7 -1 0.37 1.56
5 -7 -1 0.68 0.83
5 -7 -1 0.64 1.11
-5 7 1 -1.26 0.91
-5 7 1 -0.15 1.19
4 -7 -1 1.62 0.67
4 -7 -1 0.64 0.98
-4 7 1 1.93 0.95
3 -7 -1 83.31 3.52
3 -7 -1 92.03 3.11
-3 7 1 85.08 3.52
-3 7 1 85.83 3.57
-2 7 1 56.75 2.61
-2 7 1 50.36 2.05
-2 7 1 52.57 2.46
1 -7 -1 41.56 2.1
-1 7 1 38.82 1.64
-1 7 1 38.73 2.12
-1 7 1 41.7 2.07
0 -7 -1 -0.37 0.63
0 7 1 -0.35 0.27
0 7 1 0.08 0.34
0 7 1 -0.25 0.63
0 7 1 0.15 0.6
-1 -7 -1 35.51 1.92
1 7 1 35.86 1.51
1 7 1 35.34 1.97
1 7 1 36.48 1.9
1 7 1 37.62 1.35
-2 -7 -1 82.41 3.25
-2 -7 -1 83.27 3.21
2 7 1 83.94 3.3
2 7 1 84.31 3.26
-3 -7 -1 48.4 2.3
-3 -7 -1 46.15 2.32
3 7 1 43.69 2.32
3 7 1 47.58 2.33
-4 -7 -1 21.61 2.76
-4 -7 -1 29.94 1.19
-4 -7 -1 29.13 1.88
4 7 1 28 1.12
4 7 1 30.48 1.95
4 7 1 28.42 2.22
-5 -7 -1 5.69 1.15
-5 -7 -1 6.26 0.78
-5 -7 -1 6.42 1.1
5 7 1 7.66 0.59
5 7 1 5.88 1.16
5 7 1 5.96 1.23
-6 -7 -1 4.97 0.7
-6 -7 -1 6.82 1.2
-6 -7 -1 5.38 1.23
6 7 1 6.21 1.28
6 7 1 4.37 1.23
-7 -7 -1 7.89 0.93
-7 -7 -1 7.22 1.5
-7 -7 -1 4.75 1.3
7 7 1 7.82 1.56
7 7 1 8.52 1.49
-8 -7 -1 11.29 1.87
-8 -7 -1 10.45 1.93
-8 -7 -1 14.23 1.57
8 7 1 11.27 2.01
8 7 1 10.54 1.89
5 -8 -1 1.08 1.39
5 -8 -1 1.03 0.92
5 -8 -1 1.32 1.45
-5 8 1 -2.15 1.41
-5 8 1 2.38 1.27
4 -8 -1 4.81 1.34
4 -8 -1 2.23 1.19
-4 8 1 4.52 1.36
-4 8 1 2.37 1.21
3 -8 -1 -0.29 1.02
3 -8 -1 0.57 0.96
-3 8 1 -0.87 0.85
-3 8 1 0.23 1.03
2 -8 -1 1.66 0.92
-2 8 1 0.75 1
-2 8 1 1.67 0.95
-2 8 1 1.88 0.57
1 -8 -1 0.86 0.82
1 -8 -1 0.32 0.81
-1 8 1 1.08 0.42
-1 8 1 1.6 0.53
-1 8 1 0.83 0.88
-1 8 1 2.59 0.9
0 -8 -1 5.93 1.05
0 -8 -1 5.75 0.96
0 8 1 2.9 0.57
0 8 1 3.55 0.98
0 8 1 4.15 0.49
-1 -8 -1 0.09 0.77
-1 -8 -1 1.1 0.79
1 8 1 0.36 0.81
1 8 1 1.38 0.49
1 8 1 1.47 0.93
1 8 1 0.79 0.33
-2 -8 -1 94.14 3.7
-2 -8 -1 93.85 3.68
2 8 1 83.22 4.94
2 8 1 95.17 4.04
-3 -8 -1 126.63 4.62
-3 -8 -1 126.8 4.64
3 8 1 118.82 4.62
-4 -8 -1 37.45 2.3
-4 -8 -1 39.29 2.4
4 8 1 35.5 2.4
4 8 1 40.62 2.45
-5 -8 -1 -0.26 1.02
-5 -8 -1 0.99 1.02
-5 -8 -1 0.35 0.42
5 8 1 0.4 0.37
5 8 1 1.26 1.07
5 8 1 -0.47 1.08
-6 -8 -1 1.45 1.08
-6 -8 -1 1.41 1.25
-6 -8 -1 0.51 0.56
6 8 1 0.1 0.33
6 8 1 -0.77 1.24
6 8 1 1.23 1.21
-7 -8 -1 0.94 1.43
-7 -8 -1 0.48 1.48
-7 -8 -1 0.35 0.72
7 8 1 -0.36 1.44
7 8 1 0.57 1.37
4 -9 -1 1.94 1.53
4 -9 -1 -0.2 1.42
-4 9 1 0.48 1.55
-4 9 1 0.08 1.3
3 -9 -1 17.55 2.25
3 -9 -1 18.7 1.94
-3 9 1 19.12 2.15
-3 9 1 17.25 2.35
2 -9 -1 45.1 2.75
-2 9 1 44.4 1.93
-2 9 1 42.48 2.07
-2 9 1 46.06 2.77
-2 9 1 40.4 2.78
1 -9 -1 8.31 1.37
-1 9 1 11.43 0.99
-1 9 1 16.76 1.97
-1 9 1 9.58 1.38
-1 9 1 10 1.15
0 -9 -1 1.75 1.09
0 9 1 1.38 0.59
0 9 1 1.79 1.08
0 9 1 0.68 0.43
0 9 1 2.59 0.98
-1 -9 -1 26.01 3.36
-1 -9 -1 36.41 2.41
1 9 1 39.62 2.49
1 9 1 35.96 1.41
1 9 1 36.63 2.34
1 9 1 36.49 1.72
-2 -9 -1 27.78 2.14
-2 -9 -1 21.99 2.07
2 9 1 28.45 1.55
2 9 1 27.51 2.12
2 9 1 28.48 2.23
-3 -9 -1 1.89 1.09
-3 -9 -1 0.45 0.97
3 9 1 0.89 1.06
3 9 1 1.2 0.99
-4 -9 -1 1.16 1.09
-4 -9 -1 -0.81 1.1
4 9 1 1.98 1.17
4 9 1 1.44 1.17
-5 -9 -1 17.07 1.92
-5 -9 -1 19.99 2.17
5 9 1 16.06 0.96
5 9 1 17.38 2.31
5 9 1 14.78 1.88
-6 -9 -1 2.83 0.6
-6 -9 -1 4.57 1.53
-6 -9 -1 1.77 1.44
6 9 1 2.41 0.44
6 9 1 -0.38 1.41
6 9 1 -0.26 1.55
2 -10 -1 4.01 1.5
-2 10 1 2.32 1.34
-2 10 1 5.43 1.65
-2 10 1 3.57 0.8
-2 10 1 4.11 0.94
1 -10 -1 4.31 1.5
1 -10 -1 4.89 1.48
-1 10 1 2.44 1.48
-1 10 1 3.37 1.36
0 -10 -1 0.83 1.26
0 -10 -1 1.37 1.28
0 10 1 1.23 1.32
0 10 1 1.24 0.53
0 10 1 1.79 0.73
0 10 1 2.49 1.23
-1 -10 -1 3.92 1.35
-1 -10 -1 4.5 1.41
1 10 1 3.93 0.79
1 10 1 4.29 1.4
1 10 1 5.03 1.3
-2 -10 -1 0.06 1.12
-2 -10 -1 0.46 1.2
2 10 1 -0.32 0.68
2 10 1 -2.32 1.18
2 10 1 -0.9 1.12
-3 -10 -1 2.39 1.33
-3 -10 -1 4.83 1.47
3 10 1 4.83 1.42
3 10 1 2.36 1.44
-4 -10 -1 2.03 1.35
-4 -10 -1 3.05 1.53
4 10 1 -0.99 1.36
4 10 1 2.72 1.53
-5 -10 -1 2.57 1.76
-5 -10 -1 4.63 1.57
5 10 1 2.49 0.6
5 10 1 0.45 1.72
5 10 1 3.89 1.59
-1 -11 -1 5.63 2.11
-1 -11 -1 5.96 1.7
1 11 1 5.17 1.8
1 11 1 4.84 1.18
1 11 1 7.54 1.67
4 9 -2 38.56 3.21
4 9 -2 40.42 3.12
-4 -9 2 34.53 3.2
-4 -9 2 41.42 3.18
3 9 -2 1.66 1.43
3 9 -2 0.21 1.35
-3 -9 2 2.1 1.33
-3 -9 2 2.01 1.42
2 9 -2 8.52 1.55
2 9 -2 6.01 1.34
-2 -9 2 6.37 1.45
-2 -9 2 4.33 1.37
1 9 -2 9 1.51
1 9 -2 10.77 1.52
-1 -9 2 8.24 1.48
0 9 -2 1.35 1.1
0 9 -2 -0.37 1.19
0 -9 2 1.02 1.21
0 -9 2 1.45 1.1
-1 9 -2 2.3 1.16
-1 9 -2 5.12 0.47
-1 9 -2 5.25 1.43
-1 9 -2 4.55 1.07
1 -9 2 6.04 1.37
1 -9 2 5.16 1.26
-2 9 -2 0.88 0.96
-2 9 -2 -0.06 0.44
-2 9 -2 -0.81 1.13
-2 9 -2 -0.57 1.35
2 -9 2 0.58 1.22
2 -9 2 1.39 1.23
-3 9 -2 5.79 1.24
-3 9 -2 6.06 1.64
-3 9 -2 7.9 1.55
3 -9 2 9.26 1.57
3 -9 2 7.57 1.54
5 8 -2 -1.4 1.26
5 8 -2 -0.4 1.41
-5 -8 2 -0.37 1.31
-5 -8 2 0.12 1.43
4 8 -2 4.14 1.31
4 8 -2 1.61 1.26
-4 -8 2 3.94 1.29
-4 -8 2 3.84 1.35
3 8 -2 3.88 1.14
3 8 -2 0.94 1.12
-3 -8 2 2.17 1.13
-3 -8 2 3.09 1.14
2 8 -2 11.29 1.39
2 8 -2 10.83 1.68
-2 -8 2 9.22 1.32
1 8 -2 16.89 1.51
1 8 -2 19.78 1.98
1 8 -2 19.54 1.82
-1 -8 2 18.93 1.85
0 8 -2 10.71 1.16
0 8 -2 10.21 1.29
0 8 -2 11.24 1.4
-1 8 -2 9.91 1.32
-1 8 -2 11.43 0.64
-1 8 -2 8.94 1.24
-1 8 -2 9.55 1.08
-2 8 -2 0.8 1.07
-2 8 -2 1.63 0.98
2 -8 2 0.3 0.94
-3 8 -2 -0.95 1.06
-3 8 -2 1.16 0.86
-3 8 -2 -0.84 0.96
-4 8 -2 -0.01 0.98
-4 8 -2 2.2 1.09
-4 8 -2 0.34 1.28
4 -8 2 1.17 1.18
4 -8 2 -0.47 1.16
6 7 -2 1.66 1.49
6 7 -2 1.7 1.34
-6 -7 2 1.19 0.49
-6 -7 2 -0.56 1.38
-6 -7 2 0.22 1.41
5 7 -2 -0.31 1.16
5 7 -2 0.78 1.09
-5 -7 2 1.24 0.26
-5 -7 2 0.88 1.15
-5 -7 2 2.38 1.24
4 7 -2 4.15 1.16
4 7 -2 4.73 1.15
-4 -7 2 4.59 1.48
-4 -7 2 4.71 1.18
3 7 -2 3.52 1.01
3 7 -2 3.95 1.08
-3 -7 2 2.49 1.13
-3 -7 2 3.97 0.99
2 7 -2 3.49 0.91
2 7 -2 1.27 0.85
1 7 -2 50.81 2.55
1 7 -2 51.7 2.59
-1 -7 2 57.28 2.44
0 7 -2 18.72 1.46
0 7 -2 19.86 1.65
0 7 -2 21.93 1.72
0 -7 2 20.46 1.53
-1 7 -2 0.51 0.72
-1 7 -2 -0.03 0.73
-1 7 -2 0.04 0.62
-1 7 -2 0.08 0.25
1 -7 2 1.01 0.72
-2 7 -2 57.14 2.9
-2 7 -2 61.24 2.81
-2 7 -2 60.92 2.77
2 -7 2 62.89 2.73
-3 7 -2 8.47 1.05
-3 7 -2 12.08 1.51
-3 7 -2 10.1 1.26
3 -7 2 12.44 1.56
-4 7 -2 1.22 0.9
-4 7 -2 1.64 1.07
-4 7 -2 1.01 0.95
4 -7 2 1.92 0.97
-5 7 -2 3.37 1.3
-5 7 -2 4.42 1.13
5 -7 2 4.25 1.24
-6 7 -2 3.84 1.32
6 -7 2 1.81 1.38
6 -7 2 1.77 0.66
6 -7 2 1.82 1.37
7 6 -2 4.21 1.57
7 6 -2 0.21 1.44
-7 -6 2 -0.12 1.49
-7 -6 2 -0.25 1.44
6 6 -2 0.2 1.18
6 6 -2 0.36 1.17
-6 -6 2 -0.84 1.14
-6 -6 2 -0.78 1.14
5 6 -2 11.45 1.44
5 6 -2 11.33 1.43
-5 -6 2 13.76 1.8
-5 -6 2 11.44 0.79
-5 -6 2 10.14 1.38
4 6 -2 38.37 2.22
4 6 -2 28.34 2.92
-4 -6 2 38.81 2.18
-4 -6 2 31.93 2.12
-4 -6 2 32.96 1.13
3 6 -2 21.26 1.7
3 6 -2 22.75 1.84
-3 -6 2 25.97 1.64
-3 -6 2 19.69 1.69
2 6 -2 437.13 13.24
2 6 -2 445.02 13.29
-2 -6 2 457.85 13.29
1 6 -2 41.14 2.04
1 6 -2 39.67 2.03
-1 -6 2 40.74 1.96
-1 -6 2 37.89 1.99
0 6 -2 15.3 1.19
0 6 -2 15.69 1.29
0 6 -2 14.65 1.23
0 -6 2 15.15 1.25
0 -6 2 14.57 1.25
-1 6 -2 -0.19 0.57
-1 6 -2 0.7 0.51
-1 6 -2 0.51 0.57
1 -6 2 0.97 0.57
1 -6 2 0.44 0.59
-2 6 -2 4.18 0.78
-2 6 -2 4.53 0.82
-2 6 -2 4.21 0.74
2 -6 2 5.21 0.85
-3 6 -2 23.09 1.5
-3 6 -2 21.59 1.62
3 -6 2 21.94 1.57
-4 6 -2 6.58 1.02
-4 6 -2 5.4 0.99
-4 6 -2 6.89 0.92
4 -6 2 7.36 1.03
-5 6 -2 1.14 0.95
-5 6 -2 2.44 0.86
5 -6 2 -0.37 0.83
5 -6 2 3.98 0.99
5 -6 2 1.98 0.82
-6 6 -2 2.61 1.05
-6 6 -2 1.12 1.2
6 -6 2 3.55 1.01
6 -6 2 2.93 1.13
6 -6 2 -1.58 1.28
6 -6 2 2.59 0.59
7 5 -2 21.06 2.62
7 5 -2 22.02 2.44
-7 -5 2 22.73 2.34
-7 -5 2 22.62 2.68
6 5 -2 2.05 1.17
6 5 -2 2.84 1.12
-6 -5 2 3.25 1.17
-6 -5 2 3.34 1.17
5 5 -2 28.94 2.04
5 5 -2 29.59 2.09
-5 -5 2 26.31 1.98
-5 -5 2 27.53 2
4 5 -2 80.67 3.26
4 5 -2 82.24 3.27
-4 -5 2 89.94 3.26
-4 -5 2 67.75 3.42
3 5 -2 1.58 0.67
3 5 -2 1.97 0.71
-3 -5 2 1.56 0.7
-3 -5 2 0.03 0.6
-3 -5 2 2.16 0.26
2 5 -2 88.8 3.08
2 5 -2 84.29 3.12
-2 -5 2 79.77 3.07
-2 -5 2 79.96 3.07
1 5 -2 35.5 1.77
-1 -5 2 36.24 1.75
-1 -5 2 38.22 1.75
0 5 -2 123.57 3.81
0 5 -2 106.9 3.81
0 -5 2 110.03 3.79
0 -5 2 111.84 3.79
-1 5 -2 40.11 1.83
-1 5 -2 34.21 1.71
-1 5 -2 40.92 1.73
1 -5 2 40.5 1.79
1 -5 2 42.32 1.83
-2 5 -2 0.07 0.49
-2 5 -2 -0.29 0.41
2 -5 2 -0.06 0.5
2 -5 2 0.38 0.49
-3 5 -2 170.19 5.53
-3 5 -2 173.13 5.43
-3 5 -2 171.92 5.5
3 -5 2 167.8 5.48
3 -5 2 172.73 5.47
-4 5 -2 64.21 3.15
-4 5 -2 68.37 2.84
-4 5 -2 73.46 2.83
4 -5 2 69.89 2.78
4 -5 2 75.24 2.88
4 -5 2 70.05 2.8
-5 5 -2 8.21 1.08
-5 5 -2 9.88 1.33
5 -5 2 8.31 1
5 -5 2 7.93 1.01
5 -5 2 7.57 0.86
-6 5 -2 1.84 0.85
-6 5 -2 1.02 0.98
6 -5 2 0.35 0.45
6 -5 2 0.25 0.93
6 -5 2 -0.19 0.72
6 -5 2 -0.26 0.84
-7 5 -2 8.2 1.45
-7 5 -2 5.32 1.24
7 -5 2 8.16 1.28
7 -5 2 8.05 0.8
7 -5 2 9.17 1.4
8 4 -2 1.42 1.48
8 4 -2 3.34 1.65
-8 -4 2 0.72 1.57
-8 -4 2 3.74 1.49
7 4 -2 2.47 1.25
7 4 -2 2.76 1.24
-7 -4 2 0.6 1.14
-7 -4 2 1.68 0.34
-7 -4 2 1.79 1.23
6 4 -2 5.48 1.14
6 4 -2 3.25 1.03
-6 -4 2 3.75 1.07
-6 -4 2 3.34 0.43
-6 -4 2 4.88 1.09
5 4 -2 20.37 1.73
5 4 -2 20.47 1.65
-5 -4 2 18.1 1.61
-5 -4 2 16.66 1.6
4 4 -2 5.48 0.88
4 4 -2 6.15 0.91
-4 -4 2 7.83 0.84
-4 -4 2 5.74 0.91
3 4 -2 4.51 0.72
-3 -4 2 2.69 0.66
-3 -4 2 4.29 0.69
2 4 -2 8.69 0.92
2 4 -2 8.54 0.9
-2 -4 2 8.66 0.92
-2 -4 2 7.06 0.85
1 4 -2 15.94 1.06
1 4 -2 19.56 1.16
-1 -4 2 18.64 1.09
-1 -4 2 18.31 1.08
0 4 -2 1.85 0.49
0 4 -2 2.23 0.46
0 -4 2 2.32 0.47
0 -4 2 2.11 0.47
-1 4 -2 7.54 0.77
-1 4 -2 7.75 0.8
-1 4 -2 7.68 0.77
1 -4 2 6.71 0.76
1 -4 2 7.45 0.78
-2 4 -2 48.86 1.95
-2 4 -2 49.02 1.91
-2 4 -2 47.76 1.89
2 -4 2 49.11 1.92
2 -4 2 47.68 1.9
-3 4 -2 17.25 1.08
-3 4 -2 15.77 1.14
3 -4 2 17.18 1.09
3 -4 2 16.8 1.13
3 -4 2 16.4 1.08
-4 4 -2 126.26 4.26
-4 4 -2 127.93 4.2
-4 4 -2 127.73 4.24
4 -4 2 132 4.26
4 -4 2 122.66 4.18
4 -4 2 123.32 4.22
-5 4 -2 207.47 6.61
-5 4 -2 215.5 6.63
5 -4 2 202.88 6.14
5 -4 2 207.21 6.55
5 -4 2 205.73 6.57
5 -4 2 205.61 6.59
-6 4 -2 2.45 0.88
-6 4 -2 1.15 0.74
6 -4 2 1.12 0.7
6 -4 2 1.26 0.45
6 -4 2 1.23 0.75
-7 4 -2 4.5 1.05
-7 4 -2 4.01 1.15
7 -4 2 3.83 1.07
7 -4 2 4.01 0.59
7 -4 2 5.82 1.06
-8 4 -2 2.88 1.43
-8 4 -2 5.92 1.35
8 -4 2 2.87 1.36
8 -4 2 4.31 0.73
8 -4 2 4.43 1.21
8 -4 2 3.15 1.36
8 3 -2 3.33 1.49
8 3 -2 4.46 1.46
-8 -3 2 0.64 1.37
-8 -3 2 3.67 1.55
7 3 -2 5.83 1.28
7 3 -2 5.19 1.27
-7 -3 2 4.3 1.29
-7 -3 2 4.41 1.23
6 3 -2 46.14 2.41
-6 -3 2 38.95 1.33
-6 -3 2 37.32 2.35
5 3 -2 0.78 0.7
5 3 -2 -0.02 0.62
-5 -3 2 0.99 0.73
-5 -3 2 0.6 0.64
4 3 -2 10.68 1.12
-4 -3 2 10.55 1.1
-4 -3 2 8.48 1.08
3 3 -2 37.56 1.71
3 3 -2 35.71 1.7
-3 -3 2 37.64 1.69
-3 -3 2 35.29 1.68
2 3 -2 15.41 1.04
2 3 -2 15.78 0.49
2 3 -2 15.47 1
-2 -3 2 15 1
-2 -3 2 16.06 1
1 3 -2 97.64 3.25
1 3 -2 102.1 3.25
-1 -3 2 98.86 3.23
-1 -3 2 101.35 3.25
0 3 -2 73.28 2.13
0 3 -2 74.84 2.52
0 3 -2 78.98 2.56
0 -3 2 76.62 2.52
0 -3 2 76 2.53
-1 3 -2 68.88 2.36
-1 3 -2 71.65 2.41
-1 3 -2 73.15 2.41
1 -3 2 72.07 2.39
1 -3 2 70.76 2.37
-2 3 -2 3.68 0.48
-2 3 -2 3.17 0.46
-2 3 -2 3.45 0.47
2 -3 2 2.54 0.44
-3 3 -2 17.9 1.05
-3 3 -2 17.56 1.03
-3 3 -2 17.62 0.99
3 -3 2 18.57 1.04
3 -3 2 18.7 1.06
3 -3 2 19.78 1.07
-4 3 -2 68.13 2.56
-4 3 -2 80.26 2.58
-4 3 -2 69.72 2.61
4 -3 2 70.66 2.57
4 -3 2 66.5 2.54
4 -3 2 73.12 2.6
4 -3 2 67.86 2.29
-5 3 -2 2.48 0.68
-5 3 -2 2.56 0.6
5 -3 2 3.02 0.64
5 -3 2 2.75 0.6
5 -3 2 2.19 0.41
5 -3 2 2.29 0.65
-6 3 -2 36.04 1.95
6 -3 2 34.1 1.37
6 -3 2 31.83 1.85
6 -3 2 34.23 1.9
6 -3 2 33.33 1.89
-7 3 -2 -1.41 0.84
7 -3 2 0.86 0.77
7 -3 2 0.2 0.85
7 -3 2 0.15 0.4
7 -3 2 1.64 0.88
-8 3 -2 2.99 1.27
8 -3 2 3.72 1.24
8 -3 2 1.87 1.01
8 2 -2 -0.36 1.26
8 2 -2 -1.03 1.28
-8 -2 2 -1.39 1.26
-8 -2 2 1.02 1.26
7 2 -2 18.88 2.02
7 2 -2 20.21 1.99
-7 -2 2 21.16 2.08
-7 -2 2 21.91 0.99
-7 -2 2 18.69 1.97
6 2 -2 0.46 0.77
6 2 -2 -0.29 0.74
-6 -2 2 0.74 1.23
-6 -2 2 0.52 0.31
-6 -2 2 0.54 0.71
5 2 -2 86.04 3.15
5 2 -2 77.3 3.14
-5 -2 2 90.76 3.12
-5 -2 2 78.03 3.18
-5 -2 2 78.72 2.34
-5 -2 2 74.9 2.37
4 2 -2 64.2 2.53
4 2 -2 60.96 2.48
-4 -2 2 62.81 1.93
-4 -2 2 65.65 2.51
-4 -2 2 62.97 2.51
3 2 -2 1.17 0.46
3 2 -2 1.85 0.5
-3 -2 2 1.98 0.49
-3 -2 2 1.63 0.47
2 2 -2 990.37 27.82
2 2 -2 1000 27.84
-2 -2 2 977.32 27.81
-2 -2 2 992.18 27.81
1 2 -2 184.21 5.35
1 2 -2 176.1 5.02
1 2 -2 178.79 5.33
-1 -2 2 179.67 5.33
-1 -2 2 177.78 5.33
0 2 -2 33.43 1
0 2 -2 34.08 1.28
0 2 -2 34.95 1.27
0 -2 2 33.69 1.25
0 -2 2 35.22 1.27
-1 2 -2 153.87 4.5
-1 2 -2 152.46 4.56
-1 2 -2 149.27 4.5
1 -2 2 152.84 4.49
1 -2 2 155.37 4.5
-2 2 -2 0.92 0.3
-2 2 -2 0.79 0.31
-2 2 -2 0.82 0.28
2 -2 2 1.22 0.3
2 -2 2 0.88 0.29
-3 2 -2 76.37 2.59
-3 2 -2 81.03 2.62
-3 2 -2 75.18 2.56
3 -2 2 80.22 2.6
3 -2 2 78.47 2.42
3 -2 2 76.67 2.56
3 -2 2 78.96 2.64
-4 2 -2 41.21 1.69
-4 2 -2 41.17 1.71
4 -2 2 40.66 1.66
4 -2 2 42 1.72
4 -2 2 40.46 1.43
4 -2 2 42.82 1.73
-5 2 -2 0.95 0.53
5 -2 2 0.7 0.51
5 -2 2 0.27 0.5
5 -2 2 0.75 0.28
-6 2 -2 0.42 0.56
-6 2 -2 0.45 0.61
6 -2 2 -0.07 0.51
6 -2 2 0.26 0.31
6 -2 2 0.85 0.63
-7 2 -2 -0.13 0.73
-7 2 -2 1.05 0.8
7 -2 2 0 0.75
7 -2 2 1.07 0.7
7 -2 2 1.11 0.33
-8 2 -2 2.53 1.01
-8 2 -2 2.94 1.45
8 -2 2 3.05 0.95
8 -2 2 1.47 1.08
-9 2 -2 1.57 1.23
-9 2 -2 3.28 1.45
9 -2 2 0.37 1.38
9 -2 2 2.57 1.19
9 -2 2 2.1 1.53
8 1 -2 5.68 1.53
8 1 -2 8.56 1.58
-8 -1 2 7.64 1.6
-8 -1 2 7.03 1.46
7 1 -2 -0.26 0.97
7 1 -2 0.27 0.94
-7 -1 2 1.16 1.01
-7 -1 2 1.75 0.99
6 1 -2 40.38 2.26
6 1 -2 39.55 2.26
-6 -1 2 41.43 1.53
-6 -1 2 42.96 2.26
-6 -1 2 42.45 2.31
5 1 -2 10.12 1.18
-5 -1 2 9.55 0.59
-5 -1 2 7.76 0.99
4 1 -2 18.73 1.22
4 1 -2 16.14 1.17
-4 -1 2 20.05 1.21
-4 -1 2 18 0.62
-4 -1 2 19.82 1.27
3 1 -2 105.79 3.46
3 1 -2 107.48 3.49
-3 -1 2 106.22 3.49
-3 -1 2 99.79 3.02
-3 -1 2 105.55 3.46
2 1 -2 66.13 2.25
2 1 -2 64.14 2.22
-2 -1 2 62.3 2.22
-2 -1 2 64.14 1.94
-2 -1 2 68.11 2.24
1 1 -2 1.97 0.33
1 1 -2 1.91 0.32
-1 -1 2 2.61 0.27
-1 -1 2 2.62 0.35
-1 -1 2 1.43 0.31
0 1 -2 100.87 3
0 1 -2 103.63 2.9
0 1 -2 98.22 2.88
0 1 -2 102.71 3.01
0 -1 2 104.01 2.97
0 -1 2 100.44 3
0 -1 2 101.32 2.88
0 -1 2 100.24 3
-1 1 -2 44.77 1.4
-1 1 -2 44.98 1.52
-1 1 -2 42.34 1.4
1 -1 2 46.1 1.43
1 -1 2 46.27 1.4
-2 1 -2 0.85 0.23
-2 1 -2 1.11 0.27
-2 1 -2 0.86 0.21
2 -1 2 1.23 0.23
2 -1 2 1.22 0.22
2 -1 2 0.36 0.26
2 -1 2 1.05 0.22
-3 1 -2 145.45 4.21
-3 1 -2 137.6 4.26
-3 1 -2 139.74 4.22
3 -1 2 138.42 4.28
3 -1 2 135.99 4.07
3 -1 2 147.19 4.23
3 -1 2 136.25 4.19
-4 1 -2 29.48 1.32
-4 1 -2 29.46 1.3
4 -1 2 29.06 1.06
4 -1 2 29.7 1.33
4 -1 2 30.42 1.33
4 -1 2 30.89 1.31
-5 1 -2 0.57 0.45
5 -1 2 0.56 0.23
5 -1 2 0.44 0.43
5 -1 2 0.51 0.45
-6 1 -2 -0.12 0.55
-6 1 -2 0.2 0.54
6 -1 2 -0.12 0.41
6 -1 2 -0.21 0.52
6 -1 2 0.17 0.23
6 -1 2 0.14 0.55
-7 1 -2 77.05 3.13
-7 1 -2 75.15 3.1
7 -1 2 77.27 3.05
7 -1 2 76.05 3.14
-8 1 -2 4.02 1.03
-8 1 -2 4.89 1.17
8 -1 2 6 0.97
8 -1 2 5.89 1.15
-9 1 -2 0.31 2.31
-9 1 -2 1.55 1.14
9 -1 2 3.28 1.37
9 -1 2 2.23 1.01
9 -1 2 3.29 1.37
8 0 -2 -0.18 1.28
8 0 -2 0.38 1.27
-8 0 2 0.7 1.32
-8 0 2 -1.16 1.13
7 0 -2 20.96 2.05
7 0 -2 23.86 2.06
-7 0 2 23.66 2.13
-7 0 2 21.62 1.94
6 0 -2 15.98 1.61
6 0 -2 12.08 1.46
-6 0 2 14.74 1.61
-6 0 2 16.66 1.54
5 0 -2 37.89 1.9
5 0 -2 34.73 1.84
-5 0 2 36.42 1.93
4 0 -2 4.26 0.68
4 0 -2 4.83 0.66
-4 0 2 5.18 0.7
-4 0 2 4.32 0.68
3 0 -2 97.92 3.23
3 0 -2 95.56 3.23
-3 0 2 96.21 3.24
-3 0 2 97.27 3.22
2 0 -2 -0.03 0.28
2 0 -2 0.31 0.31
-2 0 2 0.62 0.33
-2 0 2 0.35 0.12
-2 0 2 0.1 0.3
1 0 -2 90.04 2.73
1 0 -2 86.23 2.71
1 0 -2 89.88 2.56
-1 0 2 87.6 2.72
-1 0 2 89.53 2.72
-1 0 2 89.38 2.57
0 0 -2 56.27 1.7
0 0 -2 57.14 1.69
0 0 -2 57.89 1.66
0 0 -2 58.3 1.71
0 0 -2 55.27 1.68
0 0 2 55.82 1.66
0 0 2 56.98 1.7
0 0 2 56.35 1.7
0 0 2 56.85 1.69
-1 0 -2 1.81 0.22
-1 0 -2 2.01 0.25
-1 0 -2 2.48 0.14
-1 0 -2 2.37 0.13
-1 0 -2 2.52 0.27
1 0 2 1.9 0.23
1 0 2 2.47 0.27
-2 0 -2 173.32 4.78
-2 0 -2 170.92 4.85
-2 0 -2 170.11 4.74
-2 0 -2 163.08 4.75
-2 0 -2 157.92 4.75
2 0 2 162.69 4.74
2 0 2 166.8 4.85
-3 0 -2 142.58 4.01
-3 0 -2 135.24 3.91
-3 0 -2 134.38 4.05
-3 0 -2 134.12 4.06
3 0 2 135.32 4.05
3 0 2 141.18 4.12
3 0 2 134.51 3.93
3 0 2 132.32 4.06
-4 0 -2 270.2 7.71
-4 0 -2 264.83 7.81
-4 0 -2 268.93 7.84
4 0 2 264.44 7.56
4 0 2 273.18 7.83
4 0 2 261.82 7.83
4 0 2 268.83 7.84
-5 0 -2 32.77 1.55
-5 0 -2 32.19 1.5
5 0 2 34.11 1.5
5 0 2 34.85 1.55
5 0 2 34.92 1.59
-6 0 -2 0.34 0.52
-6 0 -2 0.62 0.56
6 0 2 -0.09 0.52
6 0 2 -0.26 0.49
6 0 2 0.31 0.4
-7 0 -2 -0.66 0.68
-7 0 -2 -1.45 0.83
7 0 2 -0.16 0.55
7 0 2 -1.1 0.62
7 0 2 0.23 0.68
-8 0 -2 1.49 1.02
-8 0 -2 0.45 0.86
8 0 2 -0.27 0.84
8 0 2 -0.02 0.64
-9 0 -2 3.99 1.23
9 0 2 2.89 1.27
9 0 2 3.45 1
9 0 2 3.61 1.34
8 -1 -2 1.18 1.33
8 -1 -2 -1.58 1.22
-8 1 2 2.44 1.42
-8 1 2 1.82 1.22
7 -1 -2 13.09 1.71
7 -1 -2 13.89 1.86
-7 1 2 13.08 1.72
-7 1 2 12.16 1.51
6 -1 -2 121.23 4.5
6 -1 -2 124.36 4.55
-6 1 2 121.98 4.55
-6 1 2 127.6 4.53
5 -1 -2 14.2 1.11
-5 1 2 19.28 1.14
4 -1 -2 1.62 0.54
4 -1 -2 1.65 0.54
-4 1 2 0.65 0.48
-4 1 2 1.65 0.55
3 -1 -2 76.86 2.18
3 -1 -2 75.01 2.69
3 -1 -2 79.16 2.69
-3 1 2 76.37 2.69
-3 1 2 76.02 2.66
2 -1 -2 0.02 0.31
2 -1 -2 0.06 0.28
2 -1 -2 0.11 0.11
-2 1 2 0.15 0.29
-2 1 2 0 0.28
1 -1 -2 262.94 7.42
1 -1 -2 250.62 7.39
-1 1 2 258.1 7.4
-1 1 2 260.89 7.42
0 -1 -2 290.74 8.33
0 -1 -2 297.28 8.34
0 1 2 294.39 8.34
0 1 2 302.28 8.34
0 1 2 296.95 8.33
-1 -1 -2 268.57 7.75
-1 -1 -2 269.75 7.73
-1 -1 -2 277.41 7.81
-1 -1 -2 272.18 7.73
-1 -1 -2 296.93 7.77
1 1 2 273.43 7.75
1 1 2 283.11 7.77
1 1 2 280.5 7.81
1 1 2 268.98 7.73
-2 -1 -2 428.43 12.26
-2 -1 -2 465.48 12.26
-2 -1 -2 435.34 12.27
-2 -1 -2 449.68 12.23
2 1 2 429.58 12.28
2 1 2 433.78 12.26
2 1 2 430.19 12.26
2 1 2 432.03 12.27
-3 -1 -2 56.7 1.89
-3 -1 -2 59.23 1.82
-3 -1 -2 56.19 1.91
-3 -1 -2 57.15 1.75
3 1 2 59.02 1.92
3 1 2 56.03 1.9
3 1 2 57.57 1.89
3 1 2 60.09 1.82
-4 -1 -2 65.25 2.04
-4 -1 -2 62.07 2.17
-4 -1 -2 64.04 2.21
-4 -1 -2 62.5 1.91
4 1 2 63.81 2.2
4 1 2 61.82 2.15
4 1 2 63.82 2.21
-5 -1 -2 41.71 1.76
-5 -1 -2 42.93 1.35
-5 -1 -2 42.94 1.8
5 1 2 43.47 1.77
5 1 2 42.45 1.71
5 1 2 42.59 1.77
-6 -1 -2 69.37 2.74
-6 -1 -2 68.66 2.66
6 1 2 72.69 2.61
6 1 2 66.73 2.67
6 1 2 72.61 2.74
-7 -1 -2 5.43 0.95
7 1 2 6.1 0.93
7 1 2 6.09 0.98
7 1 2 3.97 0.87
-8 -1 -2 2.79 0.93
-8 -1 -2 5.05 1.11
8 1 2 3.7 0.81
8 1 2 1.88 0.95
-9 -1 -2 1.56 1.61
-9 -1 -2 2.57 1.14
9 1 2 2.46 1.2
9 1 2 3.17 1.26
9 1 2 1.26 0.93
8 -2 -2 11.7 1.78
8 -2 -2 9.37 1.68
8 -2 -2 7.82 1.23
-8 2 2 9.79 1.57
-8 2 2 10.36 1.78
7 -2 -2 1.72 1.08
7 -2 -2 1.65 1.1
7 -2 -2 1.76 0.78
-7 2 2 0.14 1.06
-7 2 2 2.17 0.98
6 -2 -2 11.1 1.46
6 -2 -2 9.86 1.2
-6 2 2 8.95 1.24
-6 2 2 7.82 1.35
5 -2 -2 17.57 1.38
-5 2 2 13.98 1.39
-5 2 2 17.64 1.42
4 -2 -2 27.43 1.5
4 -2 -2 26.98 1.52
-4 2 2 25.62 1.51
-4 2 2 29.44 1.53
3 -2 -2 42.55 1.81
3 -2 -2 45.06 1.85
-3 2 2 44.16 1.85
-3 2 2 45.73 1.82
2 -2 -2 70.38 2.43
2 -2 -2 72.53 2.47
-2 2 2 70.8 2.47
-2 2 2 72.93 2.45
1 -2 -2 10.88 0.67
1 -2 -2 12.29 0.72
-1 2 2 10.42 0.7
0 -2 -2 131.54 3.95
0 -2 -2 133.21 3.96
0 2 2 136.94 3.97
0 2 2 132.81 3.97
0 2 2 136.01 3.9
-1 -2 -2 50.99 1.61
-1 -2 -2 51.19 1.64
-1 -2 -2 50.98 1.63
1 2 2 50.82 1.61
1 2 2 51.11 1.65
1 2 2 50.61 1.63
-2 -2 -2 225.58 6.54
-2 -2 -2 232.04 6.52
-2 -2 -2 230.98 6.55
2 2 2 220.34 6.54
2 2 2 231.81 6.45
2 2 2 224.23 6.54
-3 -2 -2 10.56 0.66
-3 -2 -2 9.87 0.66
-3 -2 -2 10.31 0.53
3 2 2 10.22 0.69
3 2 2 10.79 0.67
3 2 2 9.98 0.5
-4 -2 -2 71.93 2.54
-4 -2 -2 76.02 2.33
-4 -2 -2 77.78 2.57
4 2 2 70.43 2.52
4 2 2 73.2 2.31
4 2 2 78.99 2.59
-5 -2 -2 23.61 1.25
-5 -2 -2 23.09 1.08
-5 -2 -2 25.47 1.34
5 2 2 23.39 1.3
5 2 2 23.97 1.32
-6 -2 -2 2.1 0.42
-6 -2 -2 2.53 0.67
-6 -2 -2 2.84 0.63
6 2 2 2.28 0.62
6 2 2 2.96 0.64
-7 -2 -2 18.71 1.53
7 2 2 18.07 1.33
7 2 2 18.25 1.49
-8 -2 -2 16.37 1.78
-8 -2 -2 17.24 1.8
8 2 2 14.27 1.44
-9 -2 -2 -0.07 1.06
-9 -2 -2 0.6 1.26
9 2 2 1.12 1.22
9 2 2 0.27 0.81
9 2 2 -1.25 1.13
8 -3 -2 -0.99 0.98
8 -3 -2 0.76 1.5
8 -3 -2 -0.59 1.58
-8 3 2 0.57 1.55
-8 3 2 1.57 1.38
7 -3 -2 0.84 1.2
7 -3 -2 -0.02 1.09
7 -3 -2 2.73 0.84
-7 3 2 4.58 1.31
-7 3 2 3.62 1.14
6 -3 -2 21.06 1.88
6 -3 -2 21.8 1.79
6 -3 -2 21.44 1.47
-6 3 2 22.92 1.78
5 -3 -2 66.28 2.93
5 -3 -2 70.38 2.64
-5 3 2 70.75 2.95
-5 3 2 67.12 2.85
4 -3 -2 17.29 1.02
4 -3 -2 17.65 1.3
4 -3 -2 16.24 1.23
-4 3 2 17.96 1.32
-4 3 2 12.59 1.11
3 -3 -2 2.11 0.38
3 -3 -2 2.4 0.57
3 -3 -2 2.22 0.52
-3 3 2 1.36 0.5
-3 3 2 2.78 0.61
2 -3 -2 34.47 1.28
2 -3 -2 33.85 1.51
2 -3 -2 32.84 1.46
-2 3 2 34.78 1.52
1 -3 -2 41.49 1.61
1 -3 -2 41.09 1.35
1 -3 -2 40.58 1.57
-1 3 2 40.56 1.59
-1 3 2 42.1 1.59
0 -3 -2 125.1 3.67
0 -3 -2 126.82 3.93
0 -3 -2 132.79 3.95
0 3 2 129.28 3.95
0 3 2 131.87 3.94
0 3 2 129.98 3.8
-1 -3 -2 82.04 2.69
-1 -3 -2 86.56 2.69
-1 -3 -2 84.81 2.56
1 3 2 89.24 2.7
1 3 2 83.74 2.57
1 3 2 82.86 2.7
-2 -3 -2 5.82 0.57
-2 -3 -2 6.37 0.61
-2 -3 -2 5.56 0.44
2 3 2 6.02 0.58
2 3 2 6.33 0.61
-3 -3 -2 0.98 0.38
-3 -3 -2 0.8 0.35
3 3 2 1.68 0.39
3 3 2 0.96 0.37
3 3 2 1.21 0.24
-4 -3 -2 218.05 6.58
-4 -3 -2 218.03 6.26
-4 -3 -2 225.75 6.6
4 3 2 224.46 6.62
4 3 2 209.66 6.56
4 3 2 215.82 6.27
-5 -3 -2 19.66 1.25
-5 -3 -2 20.48 0.97
-5 -3 -2 23.48 1.22
5 3 2 21.88 1.31
5 3 2 22.04 1.32
-6 -3 -2 89.68 3.35
-6 -3 -2 89.05 3.29
6 3 2 89.81 3.32
6 3 2 90.13 3.35
-7 -3 -2 90.09 2.92
-7 -3 -2 86.15 3.46
-7 -3 -2 87.62 3.5
7 3 2 94.21 3.5
-8 -3 -2 -0.5 0.83
-8 -3 -2 -1.08 0.93
8 3 2 0.02 0.89
-9 -3 -2 0.51 1.14
-9 -3 -2 -0.6 1.31
9 3 2 1.68 0.91
9 3 2 0.67 1.3
7 -4 -2 8.16 1.51
7 -4 -2 10.41 1.66
7 -4 -2 9.11 1.2
-7 4 2 10.32 1.58
6 -4 -2 4.5 1.13
6 -4 -2 3.02 0.32
6 -4 -2 4.14 0.79
6 -4 -2 4.85 1.15
-6 4 2 2.45 1.07
5 -4 -2 1.66 0.57
5 -4 -2 0.63 0.8
5 -4 -2 0.5 0.77
-5 4 2 0.77 0.79
4 -4 -2 3.42 0.73
-4 4 2 3.05 0.79
3 -4 -2 84.19 3.08
3 -4 -2 80.47 3.02
3 -4 -2 83.35 2.79
-3 4 2 82.42 3.08
-3 4 2 85.71 3.05
2 -4 -2 36.9 1.64
2 -4 -2 37.94 1.39
2 -4 -2 34.62 1.63
-2 4 2 35.14 1.62
-2 4 2 35.9 1.65
1 -4 -2 7.46 0.76
1 -4 -2 6.68 0.49
-1 4 2 7.04 0.79
-1 4 2 7.33 0.75
0 -4 -2 0.09 0.33
0 -4 -2 -0.1 0.33
0 4 2 0.25 0.22
0 4 2 0.19 0.15
0 4 2 0.07 0.31
-1 -4 -2 8.72 0.5
-1 -4 -2 8.69 0.73
-1 -4 -2 8.51 0.72
1 4 2 8.86 0.73
1 4 2 8.64 0.74
1 4 2 7.81 0.52
-2 -4 -2 151.4 4.9
-2 -4 -2 165.44 4.95
-2 -4 -2 161.12 4.71
2 4 2 163.99 4.94
2 4 2 162.46 4.95
-3 -4 -2 123.55 3.99
-3 -4 -2 125.78 3.79
-3 -4 -2 129.97 4.03
3 4 2 119.89 3.99
3 4 2 124.45 4
3 4 2 125.62 3.68
-4 -4 -2 31.21 1.52
-4 -4 -2 33.39 1.54
4 4 2 30.23 1.12
4 4 2 30.76 1.52
4 4 2 31.25 1.51
-5 -4 -2 8.06 1.01
5 4 2 8.04 1.05
5 4 2 11.1 1.05
5 4 2 9.12 0.58
-6 -4 -2 48.69 2.31
-6 -4 -2 48.32 2.23
6 4 2 51.41 2.29
6 4 2 44.8 2.43
-7 -4 -2 1.01 0.83
-7 -4 -2 0.12 0.73
-8 -4 -2 2.4 0.99
-8 -4 -2 4.83 0.48
8 4 2 2.53 1.11
8 4 2 5.51 1.2
-9 -4 -2 3.33 1.44
-9 -4 -2 2.02 1.25
9 4 2 0.77 1.37
9 4 2 4.49 1.49
7 -5 -2 27.28 1.06
7 -5 -2 30.46 2.8
7 -5 -2 28.03 2.75
7 -5 -2 31.57 2.3
-7 5 2 25.84 2.6
-7 5 2 28.6 2.77
6 -5 -2 3.64 1.26
6 -5 -2 3.31 1.15
6 -5 -2 2.43 0.84
-6 5 2 4.46 1.24
-6 5 2 1.9 1.06
5 -5 -2 -1.48 0.82
5 -5 -2 -0.07 0.6
5 -5 -2 0.13 0.82
-5 5 2 -0.2 0.87
-5 5 2 -0.73 0.74
-4 5 2 0.17 0.72
-4 5 2 0.53 0.66
3 -5 -2 14.21 1.22
3 -5 -2 9.94 0.9
3 -5 -2 14.18 1.24
-3 5 2 13.4 1.3
2 -5 -2 137.1 4.44
2 -5 -2 129.33 4.08
2 -5 -2 133.9 4.39
-2 5 2 133.17 4.45
-2 5 2 129.03 4.39
1 -5 -2 0.7 0.46
1 -5 -2 0.98 0.47
1 -5 -2 0.88 0.27
-1 5 2 1 0.51
-1 5 2 0.53 0.44
0 -5 -2 103.75 3.48
0 -5 -2 102.35 3.48
0 5 2 103.87 3.08
0 5 2 104.9 3.5
0 5 2 101.74 3.16
0 5 2 103.15 3.46
-1 -5 -2 96.89 3.27
-1 -5 -2 97.29 3.25
1 5 2 95.42 2.86
1 5 2 96.74 3.25
1 5 2 94.67 3.27
1 5 2 94.83 2.94
-2 -5 -2 27.97 1.08
-2 -5 -2 28.61 1.41
-2 -5 -2 26.64 1.38
2 5 2 27.97 1.42
2 5 2 29.84 1.41
2 5 2 27.59 1.09
-3 -5 -2 14.12 1.02
-3 -5 -2 12.15 0.99
-3 -5 -2 13.02 0.73
3 5 2 14.34 1.07
3 5 2 11.78 1.03
-4 -5 -2 3.25 0.64
-4 -5 -2 3.17 0.47
4 5 2 2 0.6
4 5 2 2.91 0.35
4 5 2 3.27 0.66
-5 -5 -2 2.51 0.72
-5 -5 -2 2.6 0.68
5 5 2 3.66 0.75
5 5 2 2.98 0.72
5 5 2 3.19 0.39
-6 -5 -2 22.15 1.66
-6 -5 -2 24.93 1.74
-7 -5 -2 5.72 1.05
-7 -5 -2 6.1 1.11
7 5 2 5.97 1.09
-8 -5 -2 -1.06 1.1
-8 -5 -2 0.39 0.98
8 5 2 0.68 1.13
-9 -5 -2 -1.05 1.24
-9 -5 -2 2.36 1.6
9 5 2 0.87 1.47
9 5 2 1.44 1.5
6 -6 -2 2.39 1.31
6 -6 -2 2.12 0.94
6 -6 -2 5.13 1.38
-6 6 2 2.34 1.35
-6 6 2 3.2 1.23
5 -6 -2 6.72 1.19
5 -6 -2 6.26 1.44
-5 6 2 4.99 1.21
-5 6 2 4.53 1.09
4 -6 -2 1.41 0.85
4 -6 -2 0.07 0.52
4 -6 -2 0.68 0.77
-4 6 2 -0.05 0.75
-4 6 2 0.17 0.87
3 -6 -2 133.28 4.85
3 -6 -2 140.12 4.53
-3 6 2 147.42 4.93
-3 6 2 144.56 4.96
2 -6 -2 12.06 1.19
2 -6 -2 10.99 0.83
-2 6 2 9.32 1.23
1 -6 -2 9.25 1.03
1 -6 -2 9.06 1.06
-1 6 2 6.65 0.89
-1 6 2 9.78 0.65
0 -6 -2 2.73 0.65
0 -6 -2 2.89 0.62
0 6 2 3.17 0.67
0 6 2 2.72 0.4
0 6 2 2.87 0.63
0 6 2 2.26 0.32
-1 -6 -2 7.7 0.93
-1 -6 -2 8.15 0.95
1 6 2 8.07 0.56
1 6 2 7.89 0.61
1 6 2 9.75 0.99
1 6 2 9.79 1.03
-2 -6 -2 4.21 0.69
-2 -6 -2 3.96 0.67
2 6 2 4.16 0.49
2 6 2 3.86 0.68
2 6 2 4.14 0.7
-3 -6 -2 9.55 1.02
-3 -6 -2 11.05 0.71
-3 -6 -2 12.07 1.17
3 6 2 11.36 1.12
3 6 2 12.07 1.16
-4 -6 -2 25.52 1.53
-4 -6 -2 23.09 1.55
-4 -6 -2 25.84 1.15
4 6 2 22.16 1.54
4 6 2 24.47 1.01
4 6 2 26.52 1.64
-5 -6 -2 3.99 0.84
-5 -6 -2 4.58 0.87
-5 -6 -2 3.68 0.57
5 6 2 3.54 0.43
-6 -6 -2 1.5 0.88
-6 -6 -2 1.44 0.55
-6 -6 -2 0.77 0.78
6 6 2 1.15 0.82
6 6 2 1.08 0.87
6 6 2 1.39 0.36
-7 -6 -2 49.77 2.8
-7 -6 -2 54.48 2.75
7 6 2 52.08 2.88
7 6 2 50.77 2.88
-8 -6 -2 0.13 1.26
-8 -6 -2 -0.38 1.12
8 6 2 0.77 1.24
8 6 2 -0.28 1.23
6 -7 -2 -2.18 1.39
6 -7 -2 0.16 1.42
6 -7 -2 1.08 0.96
-6 7 2 -0.52 1.33
-6 7 2 0.74 1.59
5 -7 -2 1.18 0.78
5 -7 -2 1.27 1.17
5 -7 -2 1.58 1.2
-5 7 2 2.24 1.26
-5 7 2 -0.03 1.06
4 -7 -2 9.69 1.35
4 -7 -2 9.75 1.29
4 -7 -2 9.24 1.3
-4 7 2 10.33 1.31
-4 7 2 8.8 1.38
3 -7 -2 43.55 2.42
3 -7 -2 42.22 2.38
-3 7 2 44.58 2.39
-3 7 2 49.52 2.54
2 -7 -2 1.25 0.7
-2 7 2 0.44 0.74
-2 7 2 1.01 0.72
1 -7 -2 5.21 0.91
1 -7 -2 5.66 1.01
-1 7 2 6.15 0.91
-1 7 2 7.72 1.01
-1 7 2 7.55 0.69
0 -7 -2 20.98 1.56
0 7 2 25.14 1.63
0 7 2 23.7 1.1
0 7 2 22.81 1.04
-1 -7 -2 39.42 1.99
1 7 2 41.6 1.5
1 7 2 40.96 1.52
1 7 2 37.63 2.03
-2 -7 -2 0.58 0.65
2 7 2 0.89 0.32
2 7 2 0.88 0.68
-3 -7 -2 6.12 0.63
-3 -7 -2 5.22 0.91
-3 -7 -2 5.4 0.87
3 7 2 5.21 0.93
-4 -7 -2 34.26 1.41
-4 -7 -2 37.12 2.03
-4 -7 -2 32.71 1.93
4 7 2 32.16 1.3
4 7 2 34.91 2
-5 -7 -2 55.81 2.09
-5 -7 -2 51.09 2.69
-5 -7 -2 58.7 2.75
5 7 2 53.65 1.89
5 7 2 53.31 2.65
5 7 2 60.35 2.72
-6 -7 -2 -0.2 0.53
-6 -7 -2 0.17 0.87
-6 -7 -2 0.72 0.97
6 7 2 1.59 1.02
6 7 2 0.75 0.37
6 7 2 1.49 1.11
-7 -7 -2 7.3 0.99
-7 -7 -2 5.78 1.36
-7 -7 -2 9.93 1.41
7 7 2 7.59 1.39
7 7 2 8.56 1.48
-8 -7 -2 5.1 1.46
-8 -7 -2 3.48 1.57
8 7 2 5.52 1.6
8 7 2 7.51 1.67
5 -8 -2 8.69 1.7
5 -8 -2 11.25 1.76
5 -8 -2 10.44 1.29
-5 8 2 7.68 1.82
-5 8 2 11.79 1.71
4 -8 -2 1.04 1.21
4 -8 -2 1.06 1.14
-4 8 2 -0.57 1.02
-4 8 2 0.39 1.24
3 -8 -2 11.76 2.3
3 -8 -2 14.2 1.94
-3 8 2 12.69 1.5
-3 8 2 14.44 1.92
2 -8 -2 56.96 2.83
-2 8 2 47.72 2.79
-2 8 2 57.27 2.74
1 -8 -2 90.71 3.74
1 -8 -2 99.73 3.85
-1 8 2 93.8 3.12
-1 8 2 99.17 3.16
-1 8 2 89.03 3.85
0 -8 -2 8.53 1.16
0 -8 -2 9.89 1.18
0 8 2 8.06 1.15
0 8 2 9.15 0.82
0 8 2 11.58 1.42
0 8 2 9.44 0.82
-1 -8 -2 28.66 1.87
1 8 2 29.09 1.29
1 8 2 31.62 1.88
1 8 2 28.2 1.95
1 8 2 29.7 1.31
-2 -8 -2 15.9 1.52
2 8 2 17.04 1.58
-3 -8 -2 1.92 0.82
-3 -8 -2 1.27 1.25
3 8 2 0.55 0.86
3 8 2 0.45 0.8
-4 -8 -2 0.21 0.91
-4 -8 -2 1.28 0.42
-4 -8 -2 0.96 0.84
4 8 2 0.85 0.88
4 8 2 1.05 0.93
-5 -8 -2 14.44 1.04
-5 -8 -2 15.7 1.86
-5 -8 -2 15.75 1.74
5 8 2 14.85 1.83
5 8 2 15.23 0.89
5 8 2 13.68 1.86
-6 -8 -2 3.99 1.18
-6 -8 -2 2.59 1.22
-6 -8 -2 4.64 0.71
6 8 2 3.18 1.24
6 8 2 4.99 0.55
6 8 2 4.78 1.32
-7 -8 -2 5.42 1.55
-7 -8 -2 3.08 0.84
-7 -8 -2 4.02 1.35
7 8 2 5.4 1.47
7 8 2 4.78 1.47
4 -9 -2 3.87 1.49
4 -9 -2 0.86 1.52
-4 9 2 3.31 1.41
-4 9 2 2.96 1.7
3 -9 -2 10.37 1.6
3 -9 -2 10.23 1.62
-3 9 2 7.28 1.59
-3 9 2 9.39 1.43
2 -9 -2 18.36 2.11
-2 9 2 20.87 2.18
-2 9 2 16.51 2.11
-2 9 2 19.03 1.36
1 -9 -2 7.69 1.28
1 -9 -2 5.73 1.2
-1 9 2 5.45 1.27
-1 9 2 4.69 0.67
-1 9 2 6.98 1.25
0 -9 -2 -0.04 0.95
0 -9 -2 1 0.95
0 9 2 0.42 0.92
0 9 2 0.62 0.45
0 9 2 -1 0.91
0 9 2 0.4 0.45
-1 -9 -2 3.24 1.06
-1 -9 -2 1.46 0.97
1 9 2 2.79 1.05
1 9 2 2.59 0.52
1 9 2 1.37 0.94
1 9 2 2.38 0.49
-2 -9 -2 8.44 1.29
-2 -9 -2 9.08 1.3
2 9 2 14.04 1.77
2 9 2 9.99 0.97
2 9 2 9.22 1.39
-3 -9 -2 23.39 2.13
-3 -9 -2 26.4 2.12
3 9 2 26.93 2.19
3 9 2 24.31 2.22
-4 -9 -2 5.03 1.17
-4 -9 -2 3.07 1.21
4 9 2 5.09 1.19
4 9 2 4.99 1.25
-5 -9 -2 0.2 1.23
-5 -9 -2 2.15 0.53
-5 -9 -2 2.1 1.14
5 9 2 1.95 0.51
5 9 2 3.14 1.25
5 9 2 1.05 1.26
-6 -9 -2 1.24 1.22
-6 -9 -2 -0.25 0.59
-6 -9 -2 1.26 1.38
6 9 2 1.74 1.35
6 9 2 0.49 0.47
6 9 2 -0.18 1.41
-3 10 2 6.34 1.68
2 -10 -2 3.61 1.54
2 -10 -2 1.71 1.45
-2 10 2 2.77 1.39
-2 10 2 2.89 1.5
-2 10 2 0.49 1.43
1 -10 -2 4.44 1.4
1 -10 -2 9 1.59
-1 10 2 5.72 1.6
-1 10 2 5.34 0.77
-1 10 2 5.87 0.79
-1 10 2 5.05 1.35
0 -10 -2 5.76 1.44
0 -10 -2 9.02 1.52
0 10 2 8.91 1.42
0 10 2 8.43 1.1
0 10 2 7.01 1.51
-1 -10 -2 7.68 1.51
-1 -10 -2 9.96 1.49
1 10 2 8.72 1.53
1 10 2 6.8 0.7
1 10 2 9.29 1.11
1 10 2 7.89 1.39
-2 -10 -2 4.23 1.29
-2 -10 -2 1.89 1.16
2 10 2 2.54 1.29
2 10 2 2.03 0.65
2 10 2 4.28 1.3
-3 -10 -2 0.78 1.21
-3 -10 -2 3.68 1.38
3 10 2 4.26 0.75
3 10 2 4.01 1.34
3 10 2 4.17 1.37
-4 -10 -2 0.59 1.15
-4 -10 -2 1.27 1.39
4 10 2 -0.26 1.22
4 10 2 1.02 1.43
-5 -10 -2 5.2 1.68
-5 -10 -2 6.3 1.56
5 10 2 6.33 1.71
5 10 2 6.28 1.7
5 10 2 5.3 0.72
0 -11 -2 1.61 1.63
0 -11 -2 -1.11 1.52
0 11 2 0.29 0.71
0 11 2 -0.46 1.61
0 11 2 -0.04 1.44
-1 -11 -2 -0.12 1.6
-1 -11 -2 1.58 1.41
1 11 2 0.07 1.48
1 11 2 -1.83 1.53
1 11 2 1.13 0.72
-2 -11 -2 8.42 1.86
-2 -11 -2 4.35 1.61
2 11 2 9.13 1.89
2 11 2 8.09 0.94
2 11 2 10.25 1.79
-3 -11 -2 2 1.54
-3 -11 -2 0.65 1.57
3 11 2 0.97 1.56
3 11 2 0.88 0.8
3 11 2 -2.17 1.62
3 9 -3 0.62 1.48
3 9 -3 1.28 1.63
-3 -9 3 -2.57 1.38
2 9 -3 24.5 2.52
2 9 -3 26.32 2.74
-2 -9 3 23.16 2.58
-2 -9 3 25.76 2.64
1 9 -3 2.8 1.13
1 9 -3 4.92 1.51
1 9 -3 3.94 1.32
-1 -9 3 3.87 1.68
-1 -9 3 0.89 1.32
0 9 -3 0.08 1.22
0 9 -3 0.29 1.35
0 9 -3 -0.44 1.05
0 -9 3 0.41 1.26
0 -9 3 0.41 1.15
-1 9 -3 20.67 2.39
-1 9 -3 24.6 2.63
-1 9 -3 28.44 2.35
1 -9 3 20.54 2.54
1 -9 3 26.21 2.47
-2 9 -3 0.54 1.21
-2 9 -3 -0.23 0.35
-2 9 -3 -1.78 1.1
-2 9 -3 0.1 1.65
2 -9 3 -1.25 1.19
2 -9 3 -2.55 1.29
4 8 -3 2.77 1.48
4 8 -3 3.42 1.41
-4 -8 3 0.43 1.32
-4 -8 3 -0.34 1.28
3 8 -3 20.74 2.33
3 8 -3 22.72 2.21
-3 -8 3 21.48 2.35
-3 -8 3 21.77 2.24
2 8 -3 11.04 1.53
2 8 -3 10.39 1.43
-2 -8 3 10.02 1.47
-2 -8 3 11.17 1.49
1 8 -3 0.28 0.93
1 8 -3 1.7 1.06
-1 -8 3 -1.08 0.94
-1 -8 3 0.11 0.93
0 8 -3 1.33 0.97
0 8 -3 1.72 1.09
0 -8 3 0.86 0.97
-1 8 -3 -0.76 0.89
-1 8 -3 0.93 1.07
-1 8 -3 2.83 1.01
1 -8 3 1.36 1
-2 8 -3 0.78 0.96
-2 8 -3 0.18 1.06
-2 8 -3 0.82 0.89
2 -8 3 1 1.02
-3 8 -3 3.81 1.2
-3 8 -3 5.33 1.13
-3 8 -3 2.61 1.27
-4 8 -3 1.06 1.15
-4 8 -3 -2.04 1.25
-4 8 -3 0.22 1.17
4 -8 3 0.49 1.21
5 7 -3 24 2.54
5 7 -3 23.88 2.44
-5 -7 3 25.45 2.54
-5 -7 3 24.69 2.68
4 7 -3 10.26 1.48
4 7 -3 7.41 1.33
-4 -7 3 7.51 1.39
-4 -7 3 10.77 1.46
3 7 -3 0.74 0.93
3 7 -3 0.4 0.33
-3 -7 3 1.13 0.93
2 7 -3 -1.51 0.83
2 7 -3 0.52 0.85
1 7 -3 47.21 2.48
1 7 -3 50.13 2.47
-1 -7 3 44.34 2.31
0 7 -3 22.73 1.69
0 7 -3 22.07 1.77
0 7 -3 23.46 1.78
0 -7 3 28.1 1.78
-1 7 -3 5.08 0.89
-1 7 -3 6.75 1.05
-1 7 -3 6.78 0.38
-1 7 -3 4.88 0.99
1 -7 3 6.94 1.01
-2 7 -3 1.7 0.85
-2 7 -3 1.49 0.82
-2 7 -3 0.14 0.86
2 -7 3 1.79 0.84
2 -7 3 0.57 0.75
-3 7 -3 7.96 1.16
-3 7 -3 8.2 1.19
3 -7 3 8.34 1.16
-4 7 -3 0.04 1.02
-4 7 -3 -1.02 0.82
-4 7 -3 0.8 0.89
4 -7 3 1.59 0.96
4 -7 3 1.8 0.98
-5 7 -3 7.14 1.32
-5 7 -3 10.14 1.79
-5 7 -3 9.45 1.34
5 -7 3 9.83 1.14
5 -7 3 11.33 1.51
6 6 -3 3.1 1.47
6 6 -3 1.99 1.3
-6 -6 3 1.35 0.55
-6 -6 3 2.1 1.4
-6 -6 3 1.46 1.39
5 6 -3 -0.57 1.09
5 6 -3 0.15 1.01
-5 -6 3 -0.75 1.09
-5 -6 3 -0.06 0.31
-5 -6 3 -0.42 1.13
4 6 -3 11.06 1.61
4 6 -3 12.56 1.62
-4 -6 3 11.51 1.37
-4 -6 3 9.29 1.35
3 6 -3 63.09 2.97
3 6 -3 63.3 2.02
3 6 -3 69.77 3.09
-3 -6 3 79.63 2.96
2 6 -3 0.68 0.78
2 6 -3 -0.38 1.02
1 6 -3 69.89 2.94
1 6 -3 72.63 2.94
-1 -6 3 71.05 2.91
-1 -6 3 74.41 2.99
0 6 -3 1.22 0.65
0 6 -3 0.65 0.67
0 -6 3 0.95 0.73
0 -6 3 1.36 0.63
-1 6 -3 4.57 0.85
-1 6 -3 3.79 0.78
-1 6 -3 4.86 0.8
1 -6 3 5.42 0.82
1 -6 3 5.59 0.94
-2 6 -3 0.12 0.65
-2 6 -3 0.29 0.6
2 -6 3 0.93 0.63
2 -6 3 0.9 0.66
-3 6 -3 5.56 0.94
-3 6 -3 4.08 0.82
-3 6 -3 4.2 0.84
3 -6 3 6.29 0.92
-4 6 -3 1.24 0.84
-4 6 -3 -0.79 0.7
4 -6 3 0.56 0.74
-5 6 -3 2.17 0.86
-5 6 -3 1.85 0.97
-5 6 -3 1.9 0.83
5 -6 3 1.25 0.59
5 -6 3 0.6 0.88
5 -6 3 0.1 0.87
-6 6 -3 0.04 0.95
-6 6 -3 0.79 1.21
6 -6 3 2.54 1.12
6 -6 3 1.84 0.66
7 5 -3 -0.7 1.4
7 5 -3 0.92 1.51
-7 -5 3 1.64 0.56
-7 -5 3 -0.73 1.42
-7 -5 3 -1.46 1.5
6 5 -3 0.02 1.18
6 5 -3 1.11 1.13
-6 -5 3 1.23 1.15
-6 -5 3 1.93 1.21
-6 -5 3 1.15 0.48
5 5 -3 13.56 1.75
5 5 -3 10.9 1.39
-5 -5 3 12.94 1.46
4 5 -3 47.08 2.45
4 5 -3 48.36 2.51
-4 -5 3 48.55 2.43
-4 -5 3 46.08 2.46
3 5 -3 54.59 2.59
3 5 -3 56.18 2.63
-3 -5 3 69.68 2.6
-3 -5 3 59.14 2.97
2 5 -3 17.76 1.4
2 5 -3 22.88 1.54
2 5 -3 20.67 0.8
-2 -5 3 19.36 1.45
-2 -5 3 21.08 1.5
1 5 -3 99.95 3.67
1 5 -3 109.18 3.68
-1 -5 3 104.56 3.65
-1 -5 3 104.33 3.65
0 5 -3 1.12 0.57
0 -5 3 1.22 0.55
0 -5 3 0.69 0.5
-1 5 -3 33.93 1.72
-1 5 -3 38.97 1.79
1 -5 3 38.98 1.76
1 -5 3 38.64 1.75
-2 5 -3 16.67 1.26
-2 5 -3 17.37 1.22
-2 5 -3 18.83 1.3
2 -5 3 16.89 1.18
2 -5 3 17.29 1.21
-3 5 -3 22.23 1.47
-3 5 -3 26.86 1.51
-3 5 -3 22.43 1.48
3 -5 3 23.99 1.44
-4 5 -3 -0.27 0.57
-4 5 -3 -0.11 0.6
-4 5 -3 -0.43 0.62
4 -5 3 0.94 0.61
4 -5 3 0.5 0.46
4 -5 3 0.4 0.63
-5 5 -3 38.02 2.11
-5 5 -3 38.55 2.07
5 -5 3 35.37 2.12
5 -5 3 36.55 2.01
5 -5 3 38.55 1.67
-6 5 -3 -0.53 0.93
-6 5 -3 0.18 0.81
6 -5 3 -1.66 0.76
6 -5 3 -0.01 0.5
6 -5 3 0.54 0.86
6 -5 3 0.53 0.82
-7 5 -3 3.42 1.3
-7 5 -3 1.34 0.99
7 -5 3 -0.32 0.56
7 -5 3 0.76 0.99
7 -5 3 1.16 1.09
7 4 -3 14.82 1.86
7 4 -3 13.75 1.81
-7 -4 3 15.64 1.89
-7 -4 3 13.35 0.82
-7 -4 3 18.74 2.3
6 4 -3 -1.83 1.02
6 4 -3 -0.73 0.95
-6 -4 3 0.21 0.39
-6 -4 3 -0.78 1.01
-6 -4 3 2.1 1.1
5 4 -3 28.76 1.99
-5 -4 3 28.58 1.97
-5 -4 3 25.19 1.95
4 4 -3 30.5 1.88
4 4 -3 32.03 1.88
-4 -4 3 28.03 2.12
3 4 -3 0.76 0.61
3 4 -3 -0.77 0.53
-3 -4 3 -0.25 0.53
-3 -4 3 -0.2 0.56
2 4 -3 165.15 5.32
2 4 -3 164.47 4.68
-2 -4 3 171.61 5.33
-2 -4 3 161.24 5.28
1 4 -3 66.37 2.45
1 4 -3 63.06 2.44
-1 -4 3 64.55 2.44
-1 -4 3 64.5 2.43
0 4 -3 22.29 1.25
0 4 -3 23.32 1.25
0 -4 3 22.26 1.23
0 -4 3 23.41 1.21
-1 4 -3 117.45 3.82
-1 4 -3 118.85 3.87
-1 4 -3 120.7 3.91
1 -4 3 119.27 3.85
1 -4 3 119.03 3.83
-2 4 -3 4.86 0.61
-2 4 -3 4.12 0.6
-2 4 -3 4.67 0.62
2 -4 3 3.61 0.57
2 -4 3 3.44 0.54
-3 4 -3 16.68 1.19
-3 4 -3 13.37 1.06
3 -4 3 14.24 1.05
3 -4 3 13.54 1.04
-4 4 -3 0.1 0.55
-4 4 -3 0.38 0.52
-4 4 -3 -0.28 0.44
4 -4 3 0.24 0.51
4 -4 3 0.9 0.52
4 -4 3 0.43 0.41
4 -4 3 0.37 0.52
-5 4 -3 5.41 0.79
-5 4 -3 5.32 0.87
-5 4 -3 5.75 0.85
5 -4 3 4.46 0.79
5 -4 3 4.95 0.61
5 -4 3 5.92 0.84
-6 4 -3 24.34 1.73
-6 4 -3 23.82 1.83
6 -4 3 24.96 1.71
6 -4 3 25.32 1.78
6 -4 3 27.06 1.29
-7 4 -3 0.22 1.02
7 -4 3 -1.56 0.83
7 -4 3 -0.28 0.93
7 -4 3 0.86 0.53
7 -4 3 0.8 0.85
-8 4 -3 1.1 1.28
-8 4 -3 -0.88 1.08
8 -4 3 -1.06 1.19
8 -4 3 -1.38 1
8 -4 3 0.06 0.57
8 3 -3 30.1 3
8 3 -3 35.04 3.21
-8 -3 3 36.27 3.21
-8 -3 3 30.03 3.1
7 3 -3 -1.37 1.09
7 3 -3 -0.51 1.19
-7 -3 3 -0.78 1.17
-7 -3 3 0.22 1.2
6 3 -3 -0.98 0.89
6 3 -3 2.48 1.02
-6 -3 3 1.89 0.99
-6 -3 3 0.48 0.29
-6 -3 3 -0.21 0.88
5 3 -3 1.68 0.84
5 3 -3 1.31 0.8
-5 -3 3 0.79 0.82
-5 -3 3 2.05 0.36
-5 -3 3 2.37 0.84
4 3 -3 2.61 0.7
4 3 -3 2.31 0.74
-4 -3 3 2.66 0.38
-4 -3 3 2.67 0.76
3 3 -3 3.41 0.66
-3 -3 3 3.01 0.65
-3 -3 3 3.5 0.67
2 3 -3 111.51 3.8
2 3 -3 119.02 3.85
-2 -3 3 112.89 3.8
-2 -3 3 117.76 3.81
1 3 -3 19.34 1.09
1 3 -3 22.18 1.15
1 3 -3 20.98 0.75
-1 -3 3 22 1.13
-1 -3 3 21.21 1.11
0 3 -3 10.18 0.74
0 3 -3 9.19 0.77
0 -3 3 9.89 0.76
0 -3 3 9.08 0.75
-1 3 -3 266.63 7.79
-1 3 -3 275.95 7.91
-1 3 -3 263.03 7.8
1 -3 3 259.49 7.77
1 -3 3 270.79 7.8
-2 3 -3 0.1 0.32
-2 3 -3 0.39 0.31
-2 3 -3 0.25 0.32
2 -3 3 0.13 0.3
2 -3 3 1.01 0.35
-3 3 -3 7.71 0.82
-3 3 -3 7.67 0.72
-3 3 -3 8.36 0.78
3 -3 3 8.08 0.76
3 -3 3 8.24 0.74
3 -3 3 7.55 0.81
-4 3 -3 0.07 0.45
-4 3 -3 -0.26 0.44
4 -3 3 0.92 0.42
4 -3 3 0.25 0.34
4 -3 3 0.3 0.49
4 -3 3 0.69 0.46
-5 3 -3 30.63 1.64
-5 3 -3 31.22 1.93
-5 3 -3 32.59 1.63
5 -3 3 31.38 1.61
5 -3 3 31.95 1.71
5 -3 3 32.03 1.35
5 -3 3 30.74 1.63
-6 3 -3 1.12 0.69
6 -3 3 0.19 0.64
6 -3 3 0.62 0.62
6 -3 3 -0.22 0.39
6 -3 3 0.93 0.65
-7 3 -3 10.94 1.19
-7 3 -3 10.33 1.23
7 -3 3 11.6 1.27
7 -3 3 12.44 1.52
7 -3 3 11.98 0.92
7 -3 3 10.76 1.23
-8 3 -3 -0.16 1.09
-8 3 -3 -0.28 0.92
8 -3 3 -0.59 0.48
8 -3 3 -0.4 0.93
8 -3 3 -0.62 1.07
8 2 -3 2.86 1.64
8 2 -3 3.86 1.48
-8 -2 3 2.33 1.63
-8 -2 3 3.98 1.57
7 2 -3 0.06 1.09
7 2 -3 -0.23 1.1
-7 -2 3 0.68 1.17
-7 -2 3 1.26 1.11
6 2 -3 15.37 1.71
6 2 -3 15.49 1.76
-6 -2 3 15.82 1.8
5 2 -3 -0.54 0.7
5 2 -3 0.49 0.68
-5 -2 3 -0.03 0.22
-5 -2 3 -0.34 0.74
-5 -2 3 -0.55 0.65
4 2 -3 46.38 2.13
4 2 -3 47.49 2.09
-4 -2 3 47.24 2.14
-4 -2 3 44.33 1.52
-4 -2 3 46.24 2.09
3 2 -3 11.83 1.01
3 2 -3 10.95 0.96
-3 -2 3 10.2 0.98
-3 -2 3 10.82 0.59
-3 -2 3 9.25 0.94
2 2 -3 141.69 4.41
2 2 -3 135.67 4.37
-2 -2 3 135.49 4.36
-2 -2 3 143.09 4.38
-2 -2 3 136.27 4.08
1 2 -3 47.21 1.76
1 2 -3 49.16 1.44
1 2 -3 46.98 1.77
-1 -2 3 48.07 1.77
-1 -2 3 48.01 1.77
-1 -2 3 48.21 1.44
0 2 -3 89.88 2.66
0 2 -3 95.31 2.74
0 2 -3 94.49 2.92
0 2 -3 89.29 2.92
0 -2 3 94.93 2.92
0 -2 3 94.39 2.92
-1 2 -3 551.09 15.75
-1 2 -3 543.19 15.73
-1 2 -3 602.12 15.69
1 -2 3 539.31 15.72
1 -2 3 556.5 15.74
1 -2 3 565.17 15.74
-2 2 -3 165.55 4.97
-2 2 -3 168.16 5.14
-2 2 -3 167.43 4.99
2 -2 3 171.4 4.98
2 -2 3 173.58 4.99
-3 2 -3 8.45 0.64
-3 2 -3 9.14 0.7
-3 2 -3 9.3 0.77
3 -2 3 9.6 0.68
3 -2 3 8.71 0.63
3 -2 3 8.24 0.64
3 -2 3 7.92 0.77
-4 2 -3 0.35 0.33
-4 2 -3 0.6 0.39
-4 2 -3 0.72 0.42
4 -2 3 0.89 0.34
4 -2 3 0.34 0.39
4 -2 3 0.83 0.38
4 -2 3 1.15 0.39
-5 2 -3 2.92 0.59
5 -2 3 2.85 0.57
5 -2 3 3.01 0.55
5 -2 3 2.44 0.58
5 -2 3 2.17 0.4
-6 2 -3 34.36 1.79
6 -2 3 34.85 1.85
6 -2 3 33.66 1.76
6 -2 3 31.93 1.35
-7 2 -3 6.08 0.98
7 -2 3 4.02 0.85
7 -2 3 4.97 0.54
7 -2 3 6.6 0.98
-8 2 -3 6.29 1.24
8 -2 3 3.99 1.12
8 -2 3 4.52 1.01
8 -2 3 5.87 1.14
-9 2 -3 0.63 1.32
9 -2 3 1.45 1.36
9 -2 3 0.93 1.16
8 1 -3 2.54 1.5
8 1 -3 1.11 1.46
-8 -1 3 -0.56 1.47
-8 -1 3 -0.66 1.45
7 1 -3 1.53 1.17
7 1 -3 -0.17 1.09
-7 -1 3 1 1.11
-7 -1 3 1.18 1.16
6 1 -3 1 0.84
-6 -1 3 0.28 0.41
-6 -1 3 1.05 0.9
-6 -1 3 0.25 0.97
5 1 -3 72.74 2.99
5 1 -3 66.94 2.94
-5 -1 3 81.71 3
-5 -1 3 69.16 2.99
4 1 -3 -0.36 0.46
-4 -1 3 0.52 0.18
-4 -1 3 0.82 0.59
-4 -1 3 0.4 0.53
3 1 -3 13 0.99
3 1 -3 13.14 1.01
-3 -1 3 12.77 0.95
-3 -1 3 12.3 0.99
-3 -1 3 12.14 0.57
2 1 -3 91.72 3.03
2 1 -3 90.71 3.04
-2 -1 3 94.6 3.04
-2 -1 3 89.76 2.74
-2 -1 3 91.46 2.59
-2 -1 3 92.73 3.05
1 1 -3 234.52 6.74
1 1 -3 229.71 6.72
-1 -1 3 235.9 6.73
-1 -1 3 226.38 6.44
-1 -1 3 224.21 6.56
-1 -1 3 231.01 6.71
0 1 -3 374.65 10.49
0 1 -3 379.48 10.49
0 1 -3 350.31 10.36
0 1 -3 385.49 10.38
0 -1 3 372.34 10.48
0 -1 3 369.34 10.46
0 -1 3 360.22 10.37
0 -1 3 375.17 10.48
-1 1 -3 -0.07 0.16
-1 1 -3 0.17 0.21
-1 1 -3 0.16 0.16
-1 1 -3 0.07 0.15
1 -1 3 0.09 0.22
1 -1 3 -0.03 0.15
-2 1 -3 190.66 5.6
-2 1 -3 196.07 5.46
-2 1 -3 181.04 5.39
-2 1 -3 184.34 5.4
2 -1 3 189.13 5.39
2 -1 3 188.85 5.6
2 -1 3 190.45 5.46
-3 1 -3 -0.06 0.25
-3 1 -3 0.4 0.31
3 -1 3 0.22 0.31
3 -1 3 -0.23 0.23
3 -1 3 0.21 0.24
3 -1 3 0.28 0.23
-4 1 -3 3.28 0.5
-4 1 -3 3.46 0.46
-4 1 -3 2.98 0.41
4 -1 3 3.62 0.47
4 -1 3 4.19 0.56
4 -1 3 4.01 0.47
4 -1 3 3.24 0.49
-5 1 -3 35.03 1.56
-5 1 -3 37.72 1.62
5 -1 3 36.95 1.58
5 -1 3 38.24 1.63
5 -1 3 35.73 1.34
-6 1 -3 -0.02 0.47
-6 1 -3 -0.03 0.54
6 -1 3 0.49 0.5
6 -1 3 0.59 0.56
6 -1 3 0.91 0.33
6 -1 3 0.24 0.51
-7 1 -3 -0.47 0.68
-7 1 -3 -0.3 0.61
7 -1 3 0.22 0.71
7 -1 3 0.28 0.57
7 -1 3 0.19 0.69
-8 1 -3 11.76 1.6
-8 1 -3 9.89 1.3
8 -1 3 10.87 1.3
8 -1 3 9.49 1.22
8 -1 3 11.87 1.45
-9 1 -3 1.41 1.33
-9 1 -3 2.07 1.18
9 -1 3 0.65 1.21
9 -1 3 2.5 1.09
9 -1 3 -0.39 1.32
8 0 -3 0.08 1.35
8 0 -3 2.48 1.46
-8 0 3 -0.1 1.3
-8 0 3 0.48 1.47
7 0 -3 -1.74 1.01
7 0 -3 0.25 1.09
-7 0 3 2.66 1.23
-7 0 3 0.86 1.06
6 0 -3 141.38 5.24
6 0 -3 133.3 4.87
-6 0 3 132.7 4.93
-6 0 3 130.06 5.7
5 0 -3 82.8 3.34
5 0 -3 85.3 3.33
-5 0 3 86.49 3.38
-5 0 3 88.09 3.29
4 0 -3 21.52 1.36
4 0 -3 21.16 1.35
-4 0 3 19.53 1.37
-4 0 3 20.65 1.32
3 0 -3 1.1 0.46
3 0 -3 0.84 0.43
-3 0 3 0.92 0.47
-3 0 3 0.81 0.44
2 0 -3 75.39 2.58
2 0 -3 78.17 2.58
-2 0 3 73.63 2.57
-2 0 3 76.88 2.58
-2 0 3 76.3 2.27
1 0 -3 70.4 2.26
1 0 -3 65.99 2.23
1 0 -3 71.23 2.09
-1 0 3 68.78 2.26
-1 0 3 71.43 2.11
-1 0 3 69.83 2.25
0 0 -3 81 2.47
0 0 -3 85.74 2.42
0 0 -3 82.34 2.45
0 0 -3 84.25 2.48
0 0 3 79.93 2.46
0 0 3 85.18 2.48
0 0 3 80.49 2.47
0 0 3 81.75 2.45
0 0 3 82.67 2.42
-1 0 -3 61.86 1.91
-1 0 -3 63.94 1.87
-1 0 -3 59.27 1.89
-1 0 -3 61.16 1.75
-1 0 -3 62.13 1.76
1 0 3 60.09 1.74
1 0 3 62.88 1.87
1 0 3 60.9 1.74
1 0 3 58.89 1.9
-2 0 -3 59.28 1.73
-2 0 -3 60.52 1.94
-2 0 -3 57.13 1.83
-2 0 -3 61.93 1.87
2 0 3 58.01 1.85
2 0 3 58.44 1.72
2 0 3 58.34 1.94
2 0 3 58.38 1.85
2 0 3 57.57 1.72
-3 0 -3 0.06 0.19
-3 0 -3 0.02 0.31
-3 0 -3 0.29 0.22
-3 0 -3 0.38 0.28
-3 0 -3 -0.03 0.21
3 0 3 0.18 0.21
3 0 3 0.26 0.18
3 0 3 -0.3 0.24
3 0 3 0.15 0.2
-4 0 -3 2.78 0.42
-4 0 -3 2.75 0.31
-4 0 -3 3.05 0.41
4 0 3 3.21 0.43
4 0 3 2.77 0.32
4 0 3 2.6 0.39
4 0 3 2.58 0.42
-5 0 -3 81.55 2.75
-5 0 -3 79.58 2.76
5 0 3 77.63 2.78
5 0 3 80.83 2.75
5 0 3 80.25 2.47
5 0 3 79.73 2.73
-6 0 -3 32.54 1.54
-6 0 -3 29.57 1.55
6 0 3 28.83 1.52
6 0 3 29.87 1.56
6 0 3 30.23 1.57
-7 0 -3 48.09 3.32
-7 0 -3 57.87 2.52
7 0 3 59.74 2.54
7 0 3 60.19 2.51
7 0 3 56.41 2.44
-8 0 -3 6.86 1.17
-8 0 -3 3.66 0.99
8 0 3 6.14 1.07
8 0 3 5.13 0.9
8 0 3 4.77 1.04
-9 0 -3 -1.32 1.13
-9 0 -3 -1.8 1.01
9 0 3 -0.72 0.87
9 0 3 -0.27 1.12
8 -1 -3 1.71 1.44
8 -1 -3 -0.72 1.42
-8 1 3 -1.83 1.51
-8 1 3 -0.15 1.28
7 -1 -3 -0.37 1.04
7 -1 -3 -1.1 1.03
-7 1 3 0.45 1.05
-7 1 3 0.97 1.19
6 -1 -3 5.29 1.05
6 -1 -3 5.55 1.1
-6 1 3 3.18 1.01
-6 1 3 1.5 1.69
5 -1 -3 47.68 2.35
5 -1 -3 50.16 2.36
-5 1 3 47.64 2.31
-5 1 3 49.85 2.38
4 -1 -3 0.37 0.55
4 -1 -3 1.22 0.59
-4 1 3 -0.13 0.53
-4 1 3 0.24 0.52
3 -1 -3 0.53 0.43
3 -1 -3 1.05 0.16
3 -1 -3 0.3 0.39
-3 1 3 0.98 0.44
-3 1 3 0.47 0.44
2 -1 -3 101.87 2.92
2 -1 -3 98.34 3.23
2 -1 -3 101.59 3.28
-2 1 3 101.25 3.24
-2 1 3 98.81 3.26
1 -1 -3 1.72 0.35
1 -1 -3 1.68 0.32
1 -1 -3 1.82 0.22
-1 1 3 2.09 0.35
-1 1 3 2.08 0.35
0 -1 -3 52.15 1.59
0 -1 -3 50.46 1.61
0 -1 -3 51.03 1.63
0 1 3 52.79 1.62
0 1 3 49.58 1.62
0 1 3 49.5 1.62
-1 -1 -3 620.22 18.22
-1 -1 -3 686.17 18.13
-1 -1 -3 649.72 18.18
1 1 3 633.18 18.17
1 1 3 661.97 18.14
1 1 3 651.76 18.14
-2 -1 -3 0.03 0.22
-2 -1 -3 0.33 0.24
-2 -1 -3 0.1 0.18
-2 -1 -3 0.05 0.12
2 1 3 0.04 0.19
2 1 3 0.1 0.12
2 1 3 0.15 0.21
2 1 3 0.24 0.21
-3 -1 -3 12.98 0.62
-3 -1 -3 12.72 0.61
-3 -1 -3 13.04 0.65
-3 -1 -3 14.22 0.71
-3 -1 -3 14.14 0.69
3 1 3 13.28 0.71
3 1 3 12.88 0.63
3 1 3 13.38 0.63
3 1 3 13.23 0.65
-4 -1 -3 50.42 1.79
-4 -1 -3 49.64 1.62
-4 -1 -3 50.29 1.77
-4 -1 -3 51.93 1.88
4 1 3 49.86 1.77
4 1 3 49.95 1.78
4 1 3 49.64 1.81
-5 -1 -3 71.34 2.57
-5 -1 -3 71.48 2.54
-5 -1 -3 75.3 2.27
5 1 3 75.32 2.59
5 1 3 74.28 2.57
5 1 3 72.59 2.55
-6 -1 -3 0.1 0.48
-6 -1 -3 0.11 0.25
6 1 3 -0.24 0.47
6 1 3 0.15 0.49
-7 -1 -3 3.25 0.81
-7 -1 -3 4.57 0.8
7 1 3 4.79 0.78
7 1 3 4.36 0.84
7 1 3 3.75 0.77
-8 -1 -3 1.81 0.94
-8 -1 -3 3.18 0.91
8 1 3 2.28 0.89
8 1 3 3.24 0.91
8 1 3 1.72 0.75
-9 -1 -3 11.37 1.44
-9 -1 -3 8.57 1.45
9 1 3 12.45 1.62
9 1 3 11.22 1.47
8 -2 -3 10.43 1.85
8 -2 -3 11.92 1.87
8 -2 -3 9.75 1.39
-8 2 3 10.88 1.76
-8 2 3 8.35 1.84
7 -2 -3 2.01 1.16
7 -2 -3 3.47 1.23
-7 2 3 2.24 1.23
-7 2 3 2.58 1.12
6 -2 -3 9.69 1.26
6 -2 -3 9.62 1.52
-6 2 3 11.36 1.32
-6 2 3 9.7 1.29
5 -2 -3 15.58 1.45
5 -2 -3 15.18 1.45
-5 2 3 12.9 1.39
-5 2 3 17.67 1.56
4 -2 -3 74.5 2.91
4 -2 -3 81.59 2.97
4 -2 -3 74.36 2.22
-4 2 3 75.95 2.95
-4 2 3 76.81 2.91
3 -2 -3 101.03 3.44
3 -2 -3 98.2 3.46
-3 2 3 98.66 3.45
-3 2 3 106.95 3.47
2 -2 -3 4.09 0.55
2 -2 -3 3.91 0.53
-2 2 3 4.18 0.54
-2 2 3 5.44 0.71
1 -2 -3 162.27 4.93
1 -2 -3 168.91 4.97
-1 2 3 166.78 4.94
-1 2 3 162.39 4.96
-2 -2 -3 797.33 22.33
-2 -2 -3 790.78 22.2
-2 -2 -3 842.36 22.25
-2 -2 -3 806.89 22.27
-2 -2 -3 782.9 22.26
2 2 3 787.06 22.26
2 2 3 796.07 22.26
2 2 3 784.58 22.25
-3 -2 -3 21.9 0.92
-3 -2 -3 20.45 0.92
-3 -2 -3 22.65 0.89
3 2 3 22.03 0.89
3 2 3 21.71 0.92
3 2 3 20.47 0.85
3 2 3 21.4 0.93
-4 -2 -3 50.01 1.59
-4 -2 -3 48.87 1.67
-4 -2 -3 50.75 1.78
-4 -2 -3 47.2 1.76
4 2 3 48 1.77
4 2 3 47.6 1.77
4 2 3 48.34 1.72
4 2 3 47.29 1.63
-5 -2 -3 3.05 0.34
-5 -2 -3 3.7 0.55
-5 -2 -3 2.61 0.48
5 2 3 2.81 0.5
5 2 3 3.67 0.56
5 2 3 3.88 0.5
-6 -2 -3 60.7 2
-6 -2 -3 63.17 2.49
-6 -2 -3 67.86 2.44
6 2 3 63.48 2.45
6 2 3 61.33 2.46
-7 -2 -3 28.36 1.77
-7 -2 -3 29.76 1.8
-7 -2 -3 28.04 1.08
7 2 3 26.36 1.56
7 2 3 30.27 1.75
7 2 3 31.81 1.77
-8 -2 -3 6.92 1.13
-8 -2 -3 4.68 0.96
8 2 3 5.67 1
8 2 3 5.69 0.89
8 2 3 6.7 1.07
-9 -2 -3 -0.27 1.02
-9 -2 -3 -0.44 1.13
9 2 3 0.48 0.81
9 2 3 -0.38 1.11
8 -3 -3 0.56 1.78
8 -3 -3 1.44 1.07
8 -3 -3 -0.14 1.68
-8 3 3 0.27 1.5
-8 3 3 0.83 1.77
7 -3 -3 8.26 1.56
7 -3 -3 7.86 1.51
7 -3 -3 8.22 1.13
-7 3 3 11.55 1.51
-7 3 3 7.29 1.55
6 -3 -3 6.59 1.83
6 -3 -3 9.37 1.24
6 -3 -3 7.15 1.21
-6 3 3 9.01 1.28
-6 3 3 8.01 1.33
5 -3 -3 40.67 1.27
5 -3 -3 40.1 2.22
-5 3 3 42.31 2.19
-5 3 3 40.96 2.24
4 -3 -3 23.83 1.68
3 -3 -3 39.34 1.78
3 -3 -3 37.84 1.8
-3 3 3 38.46 1.78
-3 3 3 35.46 1.78
2 -3 -3 27.89 1.34
2 -3 -3 23.9 1.26
-2 3 3 25.05 1.31
1 -3 -3 7.58 0.72
1 -3 -3 7.09 0.68
-1 3 3 7.43 0.72
-1 3 3 8.24 0.72
0 -3 -3 20.61 0.96
0 -3 -3 20.61 1
0 3 3 19.98 0.87
0 3 3 20.44 0.99
0 3 3 20.94 0.98
-1 -3 -3 27.34 1.06
-1 -3 -3 28.27 1.13
-1 -3 -3 27.27 1.12
1 3 3 28.58 1.07
1 3 3 29.5 1.13
1 3 3 27.32 1.14
-2 -3 -3 19.24 0.87
-2 -3 -3 19.34 0.9
-2 -3 -3 19.49 0.89
2 3 3 21.21 0.88
2 3 3 19.63 0.92
2 3 3 20.27 0.8
2 3 3 19.93 0.69
2 3 3 19.32 0.92
-3 -3 -3 7.06 0.62
-3 -3 -3 8.71 0.62
-3 -3 -3 8.07 0.65
3 3 3 7.74 0.65
3 3 3 9 0.52
3 3 3 9.19 0.67
-4 -3 -3 0.51 0.36
-4 -3 -3 0.04 0.34
-4 -3 -3 -0.11 0.34
4 3 3 0.54 0.27
4 3 3 0.24 0.35
4 3 3 0.44 0.36
-5 -3 -3 1.33 0.47
-5 -3 -3 1.84 0.5
5 3 3 1.45 0.5
5 3 3 1.81 0.36
5 3 3 1.28 0.48
-6 -3 -3 1.27 0.6
-6 -3 -3 1.26 0.54
-6 -3 -3 0.84 0.35
6 3 3 1.16 0.6
6 3 3 0.91 0.59
-7 -3 -3 139.47 4.1
-7 -3 -3 133.15 4.75
7 3 3 137.22 4.75
7 3 3 139.21 4.79
7 3 3 140.38 4.58
-8 -3 -3 2.27 0.93
-8 -3 -3 3.64 0.43
-8 -3 -3 4.57 1.05
8 3 3 3.48 0.81
8 3 3 3.15 1.02
-9 -3 -3 1.34 1.08
-9 -3 -3 1.4 1.19
9 3 3 -1.26 0.78
9 3 3 2.25 1.26
9 3 3 0.37 1.11
7 -4 -3 1.08 1.43
7 -4 -3 0.59 0.91
7 -4 -3 0.61 1.37
-7 4 3 -0.81 1.31
6 -4 -3 29.02 1.9
6 -4 -3 31.1 2.27
6 -4 -3 30.86 2.38
-6 4 3 30.36 2.34
5 -4 -3 6.52 0.81
5 -4 -3 5.37 1.01
5 -4 -3 5 1.08
4 -4 -3 8.77 1.19
4 -4 -3 6.97 0.69
-4 4 3 6.76 1
3 -4 -3 22.74 1.46
3 -4 -3 20.82 1.39
3 -4 -3 22.22 1.09
-3 4 3 21.73 1.46
2 -4 -3 30.95 1.54
2 -4 -3 30.65 1.21
2 -4 -3 29.02 1.47
-2 4 3 29.69 1.48
-2 4 3 32.06 1.57
1 -4 -3 59.48 2.26
1 -4 -3 59.67 1.92
1 -4 -3 63.45 2.25
-1 4 3 62.39 2.27
-1 4 3 59.53 2.27
0 -4 -3 6.95 0.35
0 -4 -3 7.2 0.73
0 -4 -3 6.02 0.69
0 4 3 7.34 0.55
0 4 3 7.58 0.76
0 4 3 7.29 0.72
-1 -4 -3 92.15 3.02
-1 -4 -3 93.97 2.86
-1 -4 -3 90.62 2.99
1 4 3 91.3 3.01
1 4 3 94.36 3.01
1 4 3 91.11 2.86
-2 -4 -3 0.5 0.35
-2 -4 -3 0.59 0.35
-2 -4 -3 0.54 0.27
2 4 3 0.53 0.36
2 4 3 0.2 0.26
2 4 3 0.88 0.36
-3 -4 -3 2.68 0.48
-3 -4 -3 2.28 0.38
-3 -4 -3 2.03 0.44
3 4 3 1.94 0.46
3 4 3 2.4 0.34
3 4 3 1.91 0.43
-4 -4 -3 0.11 0.38
-4 -4 -3 0.07 0.38
-4 -4 -3 0.08 0.3
4 4 3 -0.2 0.37
4 4 3 -0.07 0.24
4 4 3 0.21 0.4
-5 -4 -3 70.58 2.59
5 4 3 65.59 2.19
5 4 3 69.3 2.58
5 4 3 63.31 2.54
-6 -4 -3 5.05 0.82
-6 -4 -3 4.41 0.76
6 4 3 4.54 0.81
6 4 3 6.78 0.63
6 4 3 5.85 0.84
-7 -4 -3 201.94 6.72
-7 -4 -3 213.18 6.76
-7 -4 -3 208.29 6.06
7 4 3 204.03 6.74
-8 -4 -3 6.5 1.19
-8 -4 -3 4.77 1.03
-8 -4 -3 6.05 0.6
8 4 3 2.89 1.04
8 4 3 6.8 0.95
-9 -4 -3 3.05 1.23
-9 -4 -3 4.25 1.38
9 4 3 4.13 1.01
9 4 3 3.25 1.32
9 4 3 3.93 1.37
7 -5 -3 0.88 1.49
7 -5 -3 0.26 1
7 -5 -3 -0.92 1.46
-7 5 3 -0.77 1.29
-7 5 3 -0.49 1.56
6 -5 -3 2.65 1.25
6 -5 -3 2.56 1.14
6 -5 -3 1.62 0.79
-6 5 3 1.85 1.09
-6 5 3 -0.67 1.17
5 -5 -3 13.15 1.69
5 -5 -3 17.82 2.04
5 -5 -3 18.08 1.4
-5 5 3 13.1 1.8
-5 5 3 19 1.82
4 -5 -3 3.67 0.89
4 -5 -3 4.06 1.18
-4 5 3 5.21 0.92
-4 5 3 6.76 1.07
2 -5 -3 10.75 1.09
2 -5 -3 11.18 0.74
2 -5 -3 11.25 1.09
-2 5 3 11.44 1.14
-2 5 3 12.9 1.11
1 -5 -3 21.95 0.9
1 -5 -3 20.44 1.25
-1 5 3 20.44 1.28
-1 5 3 20.07 1.25
0 -5 -3 11.11 0.92
0 -5 -3 9.39 0.91
0 5 3 10.88 0.91
0 5 3 10.82 0.97
0 5 3 9.59 0.66
-1 -5 -3 110.46 3.57
-1 -5 -3 107.4 3.58
1 5 3 105.56 3.33
1 5 3 105.66 3.06
1 5 3 109.75 3.56
1 5 3 108.11 3.58
-2 -5 -3 9.98 0.65
-2 -5 -3 11.03 0.9
-2 -5 -3 12.48 0.91
2 5 3 11.44 0.68
2 5 3 11.18 0.92
2 5 3 11.28 0.88
-3 -5 -3 114.54 3.58
-3 -5 -3 115.24 3.81
-3 -5 -3 116.9 3.83
3 5 3 116.77 3.84
3 5 3 114.93 3.84
-4 -5 -3 28.85 1.35
-4 -5 -3 25.02 1.16
-4 -5 -3 22.6 1.36
4 5 3 23.32 1.39
4 5 3 24.72 1.39
4 5 3 23.88 1.03
-5 -5 -3 1.18 0.56
-5 -5 -3 0.58 0.42
-5 -5 -3 1.43 0.6
5 5 3 0.95 0.34
5 5 3 0.68 0.55
5 5 3 0.48 0.57
-6 -5 -3 20.98 1.58
-6 -5 -3 24.72 1.63
6 5 3 23.94 1.6
6 5 3 21.2 1.02
-7 -5 -3 3.51 0.94
-7 -5 -3 3.14 0.92
-8 -5 -3 1.21 1.11
-8 -5 -3 1.18 0.62
-8 -5 -3 -0.22 0.89
8 5 3 1.29 1.02
8 5 3 1.68 1.02
-9 -5 -3 2.47 1.39
-9 -5 -3 0.36 1.16
9 5 3 1.09 1.38
9 5 3 -1 1.3
6 -6 -3 2.23 1.34
6 -6 -3 2.31 1.02
6 -6 -3 1.43 1.33
-6 6 3 2.2 1.43
-6 6 3 1.49 1.25
5 -6 -3 25.67 2.23
5 -6 -3 24.79 2.17
-5 6 3 23.18 2.08
-5 6 3 23.24 2.22
4 -6 -3 1.34 0.9
4 -6 -3 1.21 0.54
4 -6 -3 -0.26 0.86
-4 6 3 0.9 0.98
-4 6 3 0.31 0.78
3 -6 -3 11.74 0.94
3 -6 -3 12.75 1.38
3 -6 -3 8.62 1.31
-3 6 3 10.71 1.34
-3 6 3 10 1.37
2 -6 -3 2.56 0.43
2 -6 -3 2.85 0.74
-2 6 3 1.4 0.71
1 -6 -3 0.5 0.27
-1 6 3 0.3 0.55
-1 6 3 0.77 0.59
0 -6 -3 204.97 6.3
0 -6 -3 199.6 6.25
0 6 3 193.3 6.26
0 6 3 201.45 6.25
0 6 3 195.96 5.91
-1 -6 -3 64.14 2.45
-1 -6 -3 62.14 2.46
1 6 3 62.35 2.47
1 6 3 61.74 1.9
1 6 3 61.17 2.12
1 6 3 64.49 2.46
-2 -6 -3 202.57 6.46
-2 -6 -3 209.11 6.11
-2 -6 -3 205.41 6.46
2 6 3 207.14 6.14
2 6 3 211.37 6.47
2 6 3 211.49 6.51
-3 -6 -3 14.25 1.21
-3 -6 -3 13.32 1.09
-3 -6 -3 14.87 0.86
3 6 3 15.82 1.18
3 6 3 14.88 1.22
-4 -6 -3 70.89 2.8
-4 -6 -3 71.44 2.44
-4 -6 -3 78.57 2.84
4 6 3 70.49 2.33
4 6 3 67.99 2.76
4 6 3 69.35 2.8
-5 -6 -3 1.02 0.7
-5 -6 -3 0.08 0.46
-5 -6 -3 0.09 0.58
5 6 3 0.1 0.69
5 6 3 0.33 0.34
5 6 3 -0.85 0.61
-6 -6 -3 46.12 2.33
-6 -6 -3 47.56 2.03
-6 -6 -3 47.62 2.41
6 6 3 45.58 1.7
-7 -6 -3 3.85 0.96
-7 -6 -3 4.35 1
-7 -6 -3 3.77 1.09
7 6 3 5.66 1.07
-8 -6 -3 1.91 1.06
-8 -6 -3 0.16 1.18
8 6 3 -0.91 1.67
8 6 3 0.27 1.16
-9 -6 -3 37.65 2.79
-9 -6 -3 28.87 3.05
9 6 3 33.49 2.93
9 6 3 31.63 2.93
6 -7 -3 1.81 1.53
6 -7 -3 1.3 1.61
6 -7 -3 2.19 1.05
-6 7 3 4.22 1.49
-6 7 3 0.67 1.68
5 -7 -3 16.76 2.22
5 -7 -3 17.65 1.71
5 -7 -3 20.28 2.21
-5 7 3 16.47 1.91
-5 7 3 14.92 1.68
4 -7 -3 42.85 2.07
4 -7 -3 44.63 2.71
4 -7 -3 43.23 2.64
-4 7 3 43.37 2.54
-4 7 3 45.1 2.72
3 -7 -3 0.24 0.83
3 -7 -3 0.63 0.85
-3 7 3 0.42 0.92
-3 7 3 0.78 0.88
2 -7 -3 5.07 0.6
2 -7 -3 4.99 0.96
-2 7 3 6.96 0.99
-2 7 3 4.85 1.01
1 -7 -3 1.99 0.68
-1 7 3 -0.23 0.68
-1 7 3 -0.21 0.63
0 -7 -3 10.78 1.26
0 7 3 10.88 0.64
0 7 3 10.81 1.3
0 7 3 11.21 0.84
-2 -7 -3 24.7 1.58
2 7 3 24.89 1.6
2 7 3 27.22 1.5
2 7 3 23.59 1.11
-3 -7 -3 7.41 0.95
-3 -7 -3 6.83 0.7
-3 -7 -3 7.86 0.95
3 7 3 7.52 0.99
-4 -7 -3 3.09 0.75
-4 -7 -3 2.09 0.78
-4 -7 -3 2.43 0.47
4 7 3 2.23 0.46
-5 -7 -3 0.68 0.48
-5 -7 -3 0.52 0.92
-5 -7 -3 0.31 0.8
5 7 3 0.12 0.36
5 7 3 1.56 0.86
-6 -7 -3 0.92 0.6
-6 -7 -3 -0.01 0.82
-6 -7 -3 1.72 0.98
6 7 3 0.32 0.4
6 7 3 1.64 0.91
-7 -7 -3 4.16 1.19
-7 -7 -3 1.68 0.79
-7 -7 -3 2.29 1.09
7 7 3 2.95 1.17
7 7 3 3.21 1.26
7 7 3 2.99 0.52
-8 -7 -3 11.53 1.64
-8 -7 -3 13.64 1.77
8 7 3 15.3 1.86
8 7 3 16.73 1.9
5 -8 -3 5.29 1.66
5 -8 -3 9.77 1.72
5 -8 -3 6.62 1.18
-5 8 3 5.39 1.75
-5 8 3 2.6 1.43
4 -8 -3 1.52 1.22
4 -8 -3 -0.1 1.21
4 -8 -3 1.9 0.74
-4 8 3 1.5 1.31
-4 8 3 1.53 1.17
3 -8 -3 6.48 1.25
3 -8 -3 8.26 1.34
-3 8 3 7.94 1.3
-3 8 3 6.51 1.35
2 -8 -3 14.25 1.71
-2 8 3 15.37 1.8
-2 8 3 16.03 1.85
1 -8 -3 0.56 0.82
-1 8 3 1.25 0.88
-1 8 3 -0.22 0.74
0 -8 -3 -0.8 0.73
0 8 3 0.04 0.3
0 8 3 0.69 0.91
0 8 3 0.16 0.39
0 8 3 1.42 0.8
-1 -8 -3 0.71 0.74
-1 -8 -3 1.07 0.82
1 8 3 -0.08 0.78
1 8 3 1.53 0.79
1 8 3 0.41 0.41
1 8 3 0.25 0.28
-2 -8 -3 26.49 1.81
-2 -8 -3 27.87 1.8
2 8 3 26.68 1.13
2 8 3 29.42 1.84
2 8 3 26.05 1.24
-3 -8 -3 0.4 0.69
-3 -8 -3 1.5 0.82
3 8 3 0.85 0.84
3 8 3 1.27 0.8
-4 -8 -3 39.28 1.62
-4 -8 -3 38.31 2.36
-4 -8 -3 37.72 2.2
4 8 3 39.31 2.26
4 8 3 38.56 2.29
-5 -8 -3 15.17 1.11
-5 -8 -3 15.34 1.81
-5 -8 -3 13.95 1.67
5 8 3 16.13 0.97
5 8 3 17.72 1.87
5 8 3 15.6 1.92
-6 -8 -3 22.64 1.44
-6 -8 -3 23.52 2.03
-6 -8 -3 25.72 2.22
6 8 3 23.55 2.39
6 8 3 24.23 2.2
6 8 3 21.56 1.15
-7 -8 -3 4.78 1.32
-7 -8 -3 4.92 0.99
-7 -8 -3 4.86 1.45
7 8 3 7.37 0.68
7 8 3 7.44 1.5
7 8 3 5.58 1.43
-8 -8 -3 3.12 1.65
-8 -8 -3 -0.65 1.37
8 8 3 2.12 1.78
8 8 3 0.13 1.5
4 -9 -3 5.75 1.65
4 -9 -3 7.21 1.69
-4 9 3 5.4 1.79
-4 9 3 5.29 1.61
3 -9 -3 -0.42 1.29
3 -9 -3 -1.48 1.17
-3 9 3 -1.82 1.06
-3 9 3 -0.22 1.29
2 -9 -3 16.44 2.1
2 -9 -3 19.77 2.07
-2 9 3 18.84 2.01
-2 9 3 17.84 2.26
1 -9 -3 0.52 1.03
-1 9 3 0.49 0.53
-1 9 3 2.61 1.03
-1 9 3 1.11 1.09
0 -9 -3 22.82 2.01
0 -9 -3 22.94 2
0 9 3 21.47 1.11
0 9 3 24.65 2
0 9 3 20.76 2.07
-1 -9 -3 5.31 1.19
-1 -9 -3 6.96 1.17
1 9 3 6.12 1.17
1 9 3 8.03 0.72
1 9 3 7.29 1.24
1 9 3 6.59 0.71
-2 -9 -3 18.12 1.76
-2 -9 -3 14.39 1.8
2 9 3 20.73 1.87
2 9 3 17.4 1.09
2 9 3 17.06 2.21
2 9 3 17.22 0.97
-3 -9 -3 6.22 1.19
-3 -9 -3 4.85 1.16
3 9 3 3.31 1.13
3 9 3 4.5 1.2
-4 -9 -3 -0.33 0.93
-4 -9 -3 0.68 0.99
4 9 3 -2.4 0.92
4 9 3 1.37 1.11
-5 -9 -3 47.61 1.95
-5 -9 -3 46.35 2.74
-5 -9 -3 47.18 2.83
5 9 3 50.71 2.93
5 9 3 44.88 2.88
5 9 3 46.94 1.86
-6 -9 -3 4.18 0.77
-6 -9 -3 3.61 1.24
-6 -9 -3 1.85 1.34
6 9 3 3.59 1.42
6 9 3 3.69 0.63
6 9 3 4.72 1.39
-7 -9 -3 12.16 1.89
-7 -9 -3 11.56 1.78
-7 -9 -3 12.42 1.46
7 9 3 11.18 1.94
7 9 3 10.47 0.96
7 9 3 10.08 1.8
3 -10 -3 10.25 2.05
3 -10 -3 7.12 1.84
-3 10 3 9.77 1.22
-3 10 3 6.2 1.95
-3 10 3 11.79 1.91
2 -10 -3 3.98 1.49
2 -10 -3 3.33 1.54
-2 10 3 5.83 1.44
-2 10 3 3.89 1.64
-2 10 3 2.74 0.82
1 -10 -3 0.61 1.28
-1 10 3 -1.34 1.3
-1 10 3 0.73 0.7
-1 10 3 1.1 1.21
0 -10 -3 3.88 1.24
0 -10 -3 3.21 1.32
0 10 3 5.06 0.72
0 10 3 1.99 1.27
0 10 3 4.57 1.3
-1 -10 -3 -0.34 1.17
-1 -10 -3 0.11 1.07
1 10 3 -0.01 0.41
1 10 3 -0.31 1.18
1 10 3 -0.37 1.02
1 10 3 -0.36 0.52
-2 -10 -3 2.11 1.15
-2 -10 -3 1.32 1.18
2 10 3 1.72 1.27
2 10 3 2.73 0.53
2 10 3 2.49 1.27
-3 -10 -3 2.47 1.15
-3 -10 -3 3.03 1.24
3 10 3 2.89 0.58
3 10 3 3.46 1.32
3 10 3 3.77 1.32
-4 -10 -3 32.21 2.58
-4 -10 -3 29.71 2.4
4 10 3 32.1 2.58
4 10 3 27.81 2.68
-5 -10 -3 13.94 1.71
-5 -10 -3 14.58 1.87
5 10 3 12.34 1.87
5 10 3 10.25 1.74
-6 -10 -3 11.83 1.3
-6 -10 -3 7.74 1.76
-6 -10 -3 13.3 2.01
6 10 3 10.23 1.97
6 10 3 9.96 1.85
6 10 3 10.48 1.11
-1 11 3 -0.77 1.5
0 -11 -3 1.1 1.43
0 -11 -3 0.68 1.57
0 11 3 -0.7 0.72
0 11 3 -1.62 1.41
0 11 3 0.6 1.57
-1 -11 -3 0.14 1.36
-1 -11 -3 1.21 1.52
1 11 3 0.53 1.43
1 11 3 -0.03 1.54
1 11 3 -0.43 0.52
-2 -11 -3 14.64 1.84
-2 -11 -3 18.21 2.12
2 11 3 17.22 2.1
2 11 3 17.54 1.21
2 11 3 15.75 1.99
-3 -11 -3 0.45 1.42
-3 -11 -3 1.84 1.55
3 11 3 -1.25 1.51
3 11 3 1.59 1.47
3 11 3 0.46 0.61
-4 -11 -3 0.51 1.61
-4 -11 -3 4.3 1.53
4 11 3 0.91 1.53
4 11 3 1.47 1.7
4 11 3 1.65 0.7
3 8 -4 5.19 1.45
3 8 -4 7.26 1.64
-3 -8 4 6.51 1.56
-3 -8 4 6.65 1.53
2 8 -4 19.7 2.51
2 8 -4 15.34 2.09
-2 -8 4 19.86 2.34
-2 -8 4 14.72 1.69
1 8 -4 16.84 2.14
1 8 -4 15.98 1.95
-1 -8 4 12.41 1.49
-1 -8 4 16.99 2.12
0 8 -4 0.74 1.14
0 8 -4 -0.02 0.95
0 8 -4 0.31 1.03
0 -8 4 0.62 1.09
-1 8 -4 0.34 1.09
-1 8 -4 1.85 1.09
-1 8 -4 0.45 0.97
1 -8 4 2.72 1.13
-2 8 -4 12.26 1.6
-2 8 -4 10.79 1.42
-2 8 -4 10.06 0.55
-2 8 -4 9.52 0.58
-2 8 -4 10.15 1.39
2 -8 4 7.09 1.39
-3 8 -4 5.38 1.43
-3 8 -4 7.37 1.37
-3 8 -4 2.75 1.27
5 7 -4 3.87 1.66
5 7 -4 0.32 1.47
-5 -7 4 1.07 0.65
-5 -7 4 2.33 1.83
-5 -7 4 3.8 1.7
4 7 -4 1.79 1.32
4 7 -4 2.03 1.25
-4 -7 4 -1.47 1.24
-4 -7 4 1.3 1.26
3 7 -4 -1.38 0.95
3 7 -4 0.18 1.14
-3 -7 4 -0.51 1.01
-3 -7 4 0.8 1.09
2 7 -4 15.26 1.89
2 7 -4 19.76 1.95
-2 -7 4 13.41 1.77
-2 -7 4 13.08 1.47
1 7 -4 2.42 0.94
1 7 -4 3.95 1.1
-1 -7 4 3.53 0.99
-1 -7 4 0.56 0.86
0 7 -4 0.35 0.83
0 7 -4 1.54 0.95
0 -7 4 2.64 0.88
0 -7 4 0.73 0.83
-1 7 -4 1.59 0.9
-1 7 -4 1.84 0.89
1 -7 4 1.87 0.9
1 -7 4 1.06 0.79
-2 7 -4 4.77 0.96
-2 7 -4 3.46 0.93
-2 7 -4 2.65 0.98
2 -7 4 2.9 0.99
2 -7 4 3.2 0.9
-3 7 -4 1.78 0.93
-3 7 -4 -0.08 0.99
-3 7 -4 0.85 0.89
3 -7 4 -0.33 0.82
-4 7 -4 29.49 2.16
-4 7 -4 25.38 2.11
-4 7 -4 26.16 2.2
4 -7 4 21.28 1.48
4 -7 4 22.51 1.94
4 -7 4 20.2 2.06
-5 7 -4 31.43 2.52
-5 7 -4 28.15 2.37
-5 7 -4 29.87 2.44
5 -7 4 31.82 1.74
5 -7 4 33.53 2.5
5 -7 4 30.07 2.47
6 6 -4 10.91 1.89
6 6 -4 11.07 1.9
-6 -6 4 9.34 1.1
-6 -6 4 9.98 1.82
-6 -6 4 5.82 2.08
5 6 -4 0.24 1.28
5 6 -4 -0.04 1.18
-5 -6 4 -0.1 0.26
-5 -6 4 1 1.27
-5 -6 4 0.21 1.31
-5 -6 4 -0.5 0.54
4 6 -4 0.34 1
4 6 -4 1.48 1.07
-4 -6 4 1.28 1.04
-4 -6 4 0.86 1.09
3 6 -4 3.84 0.99
3 6 -4 1.78 0.98
-3 -6 4 3.05 0.95
2 6 -4 1.08 0.43
2 6 -4 2.75 0.87
2 6 -4 1.72 0.87
1 6 -4 0.15 0.71
1 6 -4 1.5 0.76
-1 -6 4 -1 0.62
0 6 -4 3.02 0.82
0 6 -4 3.39 0.85
0 -6 4 1.53 0.7
0 -6 4 3.53 0.82
-1 6 -4 36.69 2.02
-1 6 -4 30.81 2.22
-1 6 -4 38.59 2.07
1 -6 4 38.24 1.94
1 -6 4 41.55 2
-2 6 -4 16.4 1.47
-2 6 -4 20.05 1.53
-2 6 -4 19.2 1.54
2 -6 4 18.28 1.42
2 -6 4 19.1 1.52
-3 6 -4 4.13 0.87
-3 6 -4 3.59 0.86
3 -6 4 4.08 0.83
3 -6 4 4.02 0.69
-4 6 -4 27.28 1.82
-4 6 -4 32.08 2.06
-4 6 -4 27.54 1.94
4 -6 4 25.14 1.81
4 -6 4 27.47 1.5
4 -6 4 23.19 1.73
-5 6 -4 7.32 1.19
-5 6 -4 5.37 1.07
-5 6 -4 6.9 1.22
5 -6 4 6.05 0.85
5 -6 4 8.06 1.14
5 -6 4 5.82 1.08
-6 6 -4 12.46 1.54
-6 6 -4 10.4 1.45
-6 6 -4 12.33 1.39
6 -6 4 11.05 1.12
6 -6 4 9.13 1.39
6 -6 4 14.45 1.94
6 5 -4 0.7 1.37
6 5 -4 3.63 1.34
-6 -5 4 0.69 1.27
-6 -5 4 -0.97 1.33
-6 -5 4 0.37 0.54
5 5 -4 13.75 1.59
5 5 -4 12.81 1.56
-5 -5 4 14.73 1.99
-5 -5 4 14.09 1.66
-5 -5 4 15.9 1.06
4 5 -4 2.28 0.98
4 5 -4 1.82 0.91
-4 -5 4 1.32 0.51
-4 -5 4 1.23 0.95
3 5 -4 1.73 0.8
3 5 -4 1.72 0.86
-3 -5 4 -0.49 0.7
2 5 -4 71.94 2.94
2 5 -4 69.95 2.11
2 5 -4 68.54 2.91
-2 -5 4 68.3 2.95
-2 -5 4 69.9 2.85
1 5 -4 37.52 1.92
1 5 -4 36.35 1.98
-1 -5 4 38.79 1.9
-1 -5 4 35.61 2.12
0 5 -4 26.08 1.55
0 5 -4 25.23 1.5
0 -5 4 25.11 1.46
0 -5 4 25.11 1.49
-1 5 -4 18.74 0.69
-1 5 -4 17.58 1.36
-1 5 -4 18.88 1.32
-1 5 -4 20.96 1.34
1 -5 4 19.54 1.27
1 -5 4 21.4 1.32
-2 5 -4 19.24 1.32
-2 5 -4 20.42 1.43
-2 5 -4 17.88 1.29
2 -5 4 17.76 1.25
2 -5 4 17.45 1.27
-3 5 -4 13.67 1.34
-3 5 -4 16.62 1.28
-3 5 -4 16.64 1.33
3 -5 4 16.71 1.25
3 -5 4 16.48 1.08
-4 5 -4 0.44 0.65
4 -5 4 0.1 0.59
4 -5 4 -0.53 0.45
4 -5 4 0.55 0.63
-5 5 -4 4.97 0.9
-5 5 -4 6.01 0.96
-5 5 -4 7.05 1.06
5 -5 4 4.92 0.87
5 -5 4 6.07 0.74
-6 5 -4 0.09 0.94
-6 5 -4 0.26 0.93
-6 5 -4 0.68 0.85
6 -5 4 1.02 0.53
6 -5 4 1.25 0.89
6 -5 4 0.35 0.88
6 -5 4 1.04 0.87
-7 5 -4 2.18 1.01
-7 5 -4 2.17 1.24
7 -5 4 1 0.63
7 -5 4 0.71 1.08
7 -5 4 2.11 1.08
7 -5 4 0.02 1.08
7 4 -4 2.62 1.56
7 4 -4 1.08 1.59
-7 -4 4 1.34 1.54
-7 -4 4 1.91 0.49
-7 -4 4 1.72 1.65
6 4 -4 12.45 1.66
6 4 -4 13.48 1.71
-6 -4 4 13.63 1.04
-6 -4 4 13.38 1.66
-6 -4 4 13.89 1.68
5 4 -4 -0.79 0.95
5 4 -4 -0.26 0.84
-5 -4 4 0.28 0.43
-5 -4 4 0.25 0.96
-5 -4 4 -0.26 0.9
4 4 -4 1.04 0.79
4 4 -4 -0.3 0.77
-4 -4 4 -0.14 0.39
3 4 -4 63.47 2.72
3 4 -4 61.67 2.67
-3 -4 4 63.88 2.23
-3 -4 4 62.36 1.92
-3 -4 4 64.33 2.67
2 4 -4 0.04 0.19
2 4 -4 -0.46 0.56
2 4 -4 1.03 0.57
-2 -4 4 0.16 0.54
-2 -4 4 0.59 0.57
1 4 -4 7.51 0.58
1 4 -4 9.57 0.93
1 4 -4 5.9 0.78
-1 -4 4 7.85 0.96
-1 -4 4 7.8 0.91
0 4 -4 -0.72 0.39
0 4 -4 0.02 0.45
0 -4 4 -0.33 0.4
0 -4 4 0.04 0.4
-1 4 -4 4.98 0.64
-1 4 -4 5.44 0.71
-1 4 -4 5.77 0.39
1 -4 4 5.46 0.64
1 -4 4 6.12 0.8
-2 4 -4 11.6 1.08
-2 4 -4 9.22 0.93
-2 4 -4 13.56 0.89
2 -4 4 11.78 0.86
2 -4 4 12.05 0.95
2 -4 4 10.76 0.91
-3 4 -4 118.36 3.94
-3 4 -4 117.56 3.89
-3 4 -4 120.97 4.1
3 -4 4 119.61 3.91
3 -4 4 120.84 3.83
-4 4 -4 54.17 2.47
-4 4 -4 58.19 2.33
-4 4 -4 57.38 2.28
4 -4 4 56.91 2.29
4 -4 4 58.15 2.14
4 -4 4 58.2 2.28
-5 4 -4 16.83 1.43
-5 4 -4 19.1 1.54
5 -4 4 18.25 1.17
5 -4 4 19.28 1.37
5 -4 4 17.04 1.37
5 -4 4 18.98 1.52
-6 4 -4 3.44 0.8
-6 4 -4 4.46 0.96
-6 4 -4 4.93 0.97
6 -4 4 4.17 0.84
6 -4 4 5.25 0.98
6 -4 4 5.51 0.71
-7 4 -4 1.61 0.89
-7 4 -4 0.28 1
7 -4 4 -1.11 0.8
7 -4 4 -1.41 0.86
7 -4 4 0.31 0.52
7 -4 4 0.61 0.86
7 3 -4 11.91 1.76
7 3 -4 11.94 1.84
-7 -3 4 8.67 1.71
-7 -3 4 14.64 1.94
6 3 -4 2.33 1.11
6 3 -4 2.71 1.18
-6 -3 4 2.13 1.14
-6 -3 4 3.17 1.17
-6 -3 4 2.68 0.43
5 3 -4 1.66 0.91
-5 -3 4 2.65 0.44
-5 -3 4 2.86 0.96
-5 -3 4 0.68 0.84
4 3 -4 0.21 0.68
4 3 -4 -0.54 0.69
-4 -3 4 0.39 0.36
-4 -3 4 -0.78 0.66
3 3 -4 52.87 2.27
3 3 -4 48.61 2.22
-3 -3 4 51.14 2.26
-3 -3 4 52.97 2.28
2 3 -4 15.48 1.12
-2 -3 4 15.17 0.6
-2 -3 4 14.25 1.12
-2 -3 4 14.08 1.07
-2 -3 4 13.84 0.95
1 3 -4 8.94 0.5
1 3 -4 9.26 0.89
1 3 -4 8.35 0.85
-1 -3 4 7.8 0.84
-1 -3 4 8.91 0.69
-1 -3 4 9.26 0.86
0 3 -4 48.38 1.82
0 3 -4 45.83 1.82
0 3 -4 48.47 1.58
0 -3 4 46.16 1.72
0 -3 4 47.45 1.8
0 -3 4 46.99 1.8
-1 3 -4 4.87 0.62
-1 3 -4 5.3 0.39
-1 3 -4 4.74 0.65
1 -3 4 4.44 0.52
1 -3 4 4.54 0.62
1 -3 4 5.39 0.63
-2 3 -4 70.34 2.56
-2 3 -4 69.8 2.36
-2 3 -4 66.72 2.36
2 -3 4 67.4 2.34
2 -3 4 70.89 2.36
2 -3 4 70.87 2.36
-3 3 -4 1.36 0.42
-3 3 -4 1.06 0.37
-3 3 -4 0.96 0.48
3 -3 4 0.81 0.37
3 -3 4 1.13 0.4
3 -3 4 1.16 0.38
-4 3 -4 24.91 1.29
-4 3 -4 23.8 1.42
4 -3 4 25.04 1.25
4 -3 4 22.78 1.42
4 -3 4 22.2 1.15
4 -3 4 25.09 1.28
-5 3 -4 148.6 4.91
-5 3 -4 152.36 4.91
5 -3 4 150.73 5.13
5 -3 4 159.58 4.76
5 -3 4 153.36 4.9
5 -3 4 156.14 4.9
-6 3 -4 1.14 0.67
6 -3 4 0.99 0.63
6 -3 4 1.97 0.72
6 -3 4 1.53 0.5
6 -3 4 1.36 0.66
-7 3 -4 0.75 0.73
-7 3 -4 1.01 0.82
7 -3 4 -0.04 0.71
7 -3 4 2 0.82
7 -3 4 0.28 0.49
7 -3 4 0.92 0.8
-8 3 -4 -0.43 0.97
-8 3 -4 2.39 1.1
8 -3 4 2.41 1.1
8 -3 4 2.21 1
8 -3 4 1.29 0.99
8 -3 4 3.03 0.62
7 2 -4 1.12 1.29
7 2 -4 -1.07 1.29
-7 -2 4 0.22 1.33
-7 -2 4 -1.79 1.27
6 2 -4 8.62 1.33
6 2 -4 9.33 1.33
-6 -2 4 5.07 1.28
-6 -2 4 7.46 1.36
5 2 -4 20.89 2.03
5 2 -4 22.81 1.82
-5 -2 4 24.81 1.86
-5 -2 4 23.42 0.97
-5 -2 4 24.36 1.76
4 2 -4 0.98 0.67
4 2 -4 -0.59 0.6
-4 -2 4 -0.76 0.26
-4 -2 4 -0.52 0.62
3 2 -4 55.09 2.31
-3 -2 4 61.69 2.39
-3 -2 4 55.62 1.91
-3 -2 4 57.48 2.33
2 2 -4 -0.16 0.41
2 2 -4 0.1 0.39
-2 -2 4 0.42 0.44
-2 -2 4 -0.42 0.39
-2 -2 4 -0.33 0.27
1 2 -4 2.71 0.31
1 2 -4 2.65 0.48
1 2 -4 2.87 0.47
-1 -2 4 2.57 0.37
-1 -2 4 2.44 0.46
-1 -2 4 3.05 0.3
-1 -2 4 2.86 0.47
0 2 -4 101.2 2.96
0 2 -4 100.85 3.16
0 2 -4 102.83 3.17
0 -2 4 99.63 3.14
0 -2 4 95.22 3.12
0 -2 4 97.75 3.09
-1 2 -4 83.44 2.63
-1 2 -4 81.6 2.51
-1 2 -4 86.03 2.58
-1 2 -4 84.65 2.65
1 -2 4 84.99 2.62
1 -2 4 78.92 2.6
1 -2 4 83.88 2.67
-2 2 -4 32.08 1.44
-2 2 -4 31.07 1.23
-2 2 -4 33.58 1.23
2 -2 4 32.25 1.21
2 -2 4 34.59 1.23
2 -2 4 32.26 1.29
-3 2 -4 9.34 0.83
-3 2 -4 9.26 0.64
-3 2 -4 8.97 0.68
3 -2 4 9.39 0.64
3 -2 4 10.42 0.67
-4 2 -4 39.73 1.71
-4 2 -4 36.92 1.52
-4 2 -4 36.73 1.49
4 -2 4 36.62 1.47
4 -2 4 35.48 1.47
4 -2 4 38.1 1.49
-5 2 -4 35.36 1.73
-5 2 -4 34.56 1.59
5 -2 4 35.02 1.45
5 -2 4 36.16 1.58
5 -2 4 32.99 1.55
5 -2 4 35.88 1.77
-6 2 -4 1.69 0.62
-6 2 -4 1.53 0.56
6 -2 4 1.29 0.44
6 -2 4 1.46 0.61
6 -2 4 1.59 0.58
-7 2 -4 0.85 0.71
7 -2 4 1.7 0.77
7 -2 4 1.03 0.74
7 -2 4 0.7 0.47
-8 2 -4 20.62 1.93
8 -2 4 21.92 1.2
8 -2 4 22.22 1.88
8 -2 4 23.48 1.93
8 -2 4 22.4 1.87
7 1 -4 3.16 1.33
7 1 -4 5.2 1.35
-7 -1 4 6.13 1.49
-7 -1 4 5.34 1.5
6 1 -4 -0.57 0.92
6 1 -4 -0.56 0.89
-6 -1 4 -1.14 0.94
-6 -1 4 0.03 0.96
-6 -1 4 0.17 0.36
5 1 -4 2.51 0.87
5 1 -4 3.74 0.9
-5 -1 4 3.61 0.96
-5 -1 4 3.84 0.93
4 1 -4 4.23 0.78
4 1 -4 6.02 0.87
-4 -1 4 6.09 0.47
-4 -1 4 5.23 0.84
-4 -1 4 6.53 0.9
3 1 -4 3.69 0.65
-3 -1 4 4 0.64
-3 -1 4 4.26 0.68
-3 -1 4 4.1 0.25
-3 -1 4 4.09 0.45
2 1 -4 0.87 0.44
2 1 -4 1.5 0.46
-2 -1 4 1.17 0.44
-2 -1 4 0.83 0.27
-2 -1 4 1.24 0.16
-2 -1 4 0.97 0.42
1 1 -4 5.11 0.6
1 1 -4 4.9 0.57
-1 -1 4 4.49 0.46
-1 -1 4 4.56 0.62
-1 -1 4 4.14 0.49
-1 -1 4 4.71 0.31
-1 -1 4 4.05 0.37
0 1 -4 2.13 0.28
0 1 -4 1.85 0.32
0 1 -4 1.82 0.32
0 -1 4 1.74 0.24
0 -1 4 1.65 0.3
0 -1 4 1.6 0.32
0 -1 4 1.78 0.31
0 -1 4 1.97 0.25
-1 1 -4 280.91 8.09
-1 1 -4 286.79 8.09
-1 1 -4 280.54 8.1
-1 1 -4 298.13 8.12
1 -1 4 275.11 8.07
1 -1 4 291.51 8.2
-2 1 -4 1.55 0.39
-2 1 -4 2.72 0.35
-2 1 -4 2.52 0.41
-2 1 -4 1.84 0.23
2 -1 4 2.41 0.37
2 -1 4 2.11 0.26
-3 1 -4 67.16 2.09
-3 1 -4 67.59 2.36
-3 1 -4 63.19 2.13
3 -1 4 65.47 2.18
3 -1 4 67.48 2.36
3 -1 4 68.47 2.08
-4 1 -4 49.17 1.78
-4 1 -4 50.91 1.78
-4 1 -4 52.03 2
4 -1 4 49.23 1.75
4 -1 4 52.35 2.04
4 -1 4 52.27 1.79
4 -1 4 51.78 1.79
-5 1 -4 13.27 1.06
-5 1 -4 13.43 0.93
5 -1 4 12.78 0.94
5 -1 4 14.89 0.94
5 -1 4 15.05 0.85
-6 1 -4 1.35 0.51
-6 1 -4 1.55 0.55
6 -1 4 2.2 0.57
6 -1 4 1.5 0.56
6 -1 4 1.06 0.51
6 -1 4 1.31 0.42
-7 1 -4 0.12 0.81
-7 1 -4 0.96 0.7
7 -1 4 0.82 0.67
7 -1 4 0.83 0.64
7 -1 4 -0.11 0.59
-8 1 -4 -0.02 0.77
-8 1 -4 0.78 0.88
8 -1 4 0.27 0.86
8 -1 4 0.72 0.82
8 -1 4 0.04 0.77
-9 1 -4 9.42 1.44
-9 1 -4 11.6 1.4
9 -1 4 8.63 1.35
9 -1 4 7.21 1.41
9 -1 4 9.85 1.41
8 0 -4 7.74 1.87
8 0 -4 7.09 1.83
-8 0 4 9.8 2.05
-8 0 4 11.95 1.9
7 0 -4 2.05 1.23
7 0 -4 2.72 1.3
-7 0 4 3.35 1.24
-7 0 4 1.59 1.33
6 0 -4 -0.3 0.93
6 0 -4 0.8 0.97
-6 0 4 0.66 1.01
-6 0 4 2.08 1.08
5 0 -4 117.79 4.24
5 0 -4 117.25 4.3
-5 0 4 104.14 4.54
-5 0 4 122.05 4.29
4 0 -4 9.8 1.14
-4 0 4 9.5 1.2
-4 0 4 9.3 1.11
3 0 -4 14.02 1.06
3 0 -4 15 1.1
-3 0 4 16.02 1.14
-3 0 4 15.12 1.12
-3 0 4 14.79 0.66
2 0 -4 1.04 0.44
2 0 -4 1.78 0.46
-2 0 4 1.74 0.45
-2 0 4 1.64 0.46
-2 0 4 1.57 0.27
1 0 -4 355.29 10.39
1 0 -4 373.92 10.24
1 0 -4 357.99 10.41
-1 0 4 367.67 10.42
-1 0 4 360.97 10.26
-1 0 4 351.08 10.17
-1 0 4 372.89 10.41
0 0 -4 87.18 2.7
0 0 -4 89.86 2.7
0 0 -4 88.56 2.72
0 0 4 91.44 2.72
0 0 4 89.1 2.69
0 0 4 93.03 2.71
0 0 4 86.7 2.63
0 0 4 85.95 2.71
-1 0 -4 311.19 8.39
-1 0 -4 288.21 8.27
-1 0 -4 295.6 8.41
-1 0 -4 319.68 8.43
-1 0 -4 286.58 8.27
1 0 4 279.78 8.26
1 0 4 292.98 8.37
1 0 4 300.66 8.44
1 0 4 287.14 8.26
1 0 4 295.08 8.41
-2 0 -4 148.72 4.2
-2 0 -4 137.33 3.95
-2 0 -4 148.57 4.19
-2 0 -4 135.75 4.2
-2 0 -4 139.74 4.28
-2 0 -4 137.83 3.95
2 0 4 144.24 4.21
2 0 4 141.33 4.17
-3 0 -4 123.82 3.59
-3 0 -4 126.19 3.84
-3 0 -4 126.1 3.69
3 0 4 118.63 3.57
3 0 4 123.34 3.86
3 0 4 121.32 3.56
3 0 4 124.51 3.72
-4 0 -4 28.29 1.28
-4 0 -4 28.8 1.11
-4 0 -4 28.61 1.13
-4 0 -4 28.82 1.11
4 0 4 27.25 1.11
4 0 4 27.89 1.11
4 0 4 27.22 1.09
4 0 4 27.04 1.29
-5 0 -4 78.8 2.66
-5 0 -4 76.07 2.67
5 0 4 78.24 2.65
5 0 4 89.08 2.85
5 0 4 79.47 2.67
5 0 4 77.91 2.54
-6 0 -4 3.13 0.59
6 0 4 3.13 0.59
6 0 4 2.57 0.57
6 0 4 3.62 0.64
-7 0 -4 45.53 2.07
-7 0 -4 45.37 2.11
7 0 4 42.35 2.1
7 0 4 42.68 2.04
7 0 4 43.79 2.04
-8 0 -4 5.44 0.98
-8 0 -4 4.42 0.98
8 0 4 2.83 0.86
8 0 4 4.53 0.98
8 0 4 6.88 1.02
-9 0 -4 0.8 1
-9 0 -4 3.72 1.2
9 0 4 2.28 1.13
9 0 4 2.48 1.11
9 0 4 0.45 0.92
8 -1 -4 8.74 1.94
8 -1 -4 10.31 1.94
-8 1 4 7.96 1.99
-8 1 4 12.27 1.9
7 -1 -4 -0.48 1.16
7 -1 -4 1.34 1.25
-7 1 4 0.08 1.15
-7 1 4 -0.78 1.27
6 -1 -4 2.81 1.05
6 -1 -4 2.83 1.08
-6 1 4 1.38 1.02
-6 1 4 1.17 0.96
5 -1 -4 140.75 5.06
5 -1 -4 149.14 5.17
-5 1 4 149.69 5.11
4 -1 -4 11.25 1.21
-4 1 4 12.3 1.18
-4 1 4 12.79 1.25
3 -1 -4 21.08 0.81
3 -1 -4 21.32 1.29
3 -1 -4 22.51 1.32
-3 1 4 22.64 1.28
-3 1 4 19.64 1.27
2 -1 -4 191.72 5.79
2 -1 -4 186.14 5.47
2 -1 -4 187.69 5.81
-2 1 4 197.74 5.81
-2 1 4 189.28 5.8
1 -1 -4 41 1.58
1 -1 -4 41.61 1.38
1 -1 -4 42.26 1.56
-1 1 4 41.92 1.56
-1 1 4 41.48 1.57
0 -1 -4 24.94 0.97
0 -1 -4 26.49 1
0 -1 -4 25.26 0.95
0 1 4 25.48 0.92
0 1 4 25.54 0.98
0 1 4 26.21 0.98
0 1 4 24.21 0.95
0 1 4 25.82 0.98
-1 -1 -4 30.78 1.06
-1 -1 -4 28.72 1.07
-1 -1 -4 29.12 0.93
-1 -1 -4 29.66 1.02
-1 -1 -4 27.55 0.93
1 1 4 25.71 0.93
1 1 4 28.32 0.91
1 1 4 28.04 1.07
1 1 4 28.81 1.06
1 1 4 28.42 1.02
-2 -1 -4 71.73 2.01
-2 -1 -4 71.08 2.26
-2 -1 -4 69.48 2.01
-2 -1 -4 71.8 2.23
-2 -1 -4 70.16 2.28
-2 -1 -4 72.68 2.23
2 1 4 70.46 2.22
2 1 4 70.88 2.23
-3 -1 -4 55.68 2.08
-3 -1 -4 70.13 2.21
-3 -1 -4 69.66 2.01
-3 -1 -4 68.66 2.12
-3 -1 -4 66.16 2.15
3 1 4 68.53 2.15
3 1 4 65.01 1.99
3 1 4 66.86 2.22
3 1 4 65.18 2.11
-4 -1 -4 1.4 0.29
-4 -1 -4 1.72 0.32
-4 -1 -4 1.24 0.3
-4 -1 -4 1.28 0.36
4 1 4 1.45 0.3
4 1 4 1.37 0.37
4 1 4 1.44 0.36
4 1 4 1.74 0.3
-5 -1 -4 5.95 0.67
-5 -1 -4 5.17 0.68
-5 -1 -4 6.33 0.57
5 1 4 6.73 0.73
5 1 4 5.62 0.7
5 1 4 5.24 0.66
-6 -1 -4 8.16 0.92
-6 -1 -4 8.06 0.65
6 1 4 8.74 0.93
6 1 4 8.57 0.91
-7 -1 -4 44.34 2.09
-7 -1 -4 45.79 2.07
7 1 4 43.32 2.09
7 1 4 40.65 2.07
7 1 4 43.83 2.04
-8 -1 -4 0.46 0.83
-8 -1 -4 1.27 0.82
8 1 4 0.59 0.68
8 1 4 -0.09 1.02
8 1 4 0.78 0.76
-9 -1 -4 25.63 2.25
-9 -1 -4 19.41 2.03
9 1 4 26.19 2.2
9 1 4 22.71 1.88
9 1 4 23.89 2.16
7 -2 -4 1 1.22
7 -2 -4 0.94 1.24
-7 2 4 0.88 1.32
-7 2 4 0.82 1.17
6 -2 -4 11.05 1.42
6 -2 -4 10.37 1.37
-6 2 4 14.47 1.78
-6 2 4 11.16 1.41
5 -2 -4 51.74 2.53
5 -2 -4 46.37 2.64
-5 2 4 45.78 2.83
-5 2 4 52.08 2.49
4 -2 -4 10.02 0.48
4 -2 -4 9.59 1.14
-4 2 4 8.96 1.22
3 -2 -4 8.41 1
3 -2 -4 8.62 0.95
-3 2 4 8.08 0.96
-3 2 4 7.14 0.91
2 -2 -4 105.03 3.11
2 -2 -4 99.45 3.44
2 -2 -4 108.49 3.51
-2 2 4 104.84 3.49
-2 2 4 107.65 3.47
1 -2 -4 25.27 1.18
1 -2 -4 25.01 0.95
1 -2 -4 25.64 1.14
-1 2 4 25.13 1.16
-1 2 4 25.99 1.17
0 -2 -4 6.83 0.56
0 -2 -4 6.62 0.54
0 -2 -4 7.57 0.49
0 2 4 7.01 0.55
0 2 4 6.69 0.48
-1 -2 -4 21.73 0.85
-1 -2 -4 23.05 0.92
-1 -2 -4 22.65 0.88
1 2 4 18.14 0.8
1 2 4 23.38 0.95
1 2 4 21.55 0.85
1 2 4 21.81 0.86
-2 -2 -4 306.06 8.93
-2 -2 -4 337.5 8.99
-2 -2 -4 312.66 8.91
-2 -2 -4 304.18 8.9
-2 -2 -4 318.19 9.06
-2 -2 -4 319.31 8.97
2 2 4 308.06 8.9
2 2 4 307.24 8.98
2 2 4 330.52 9.08
-3 -2 -4 5.15 0.55
-3 -2 -4 4.79 0.56
-3 -2 -4 5.51 0.44
-3 -2 -4 4.78 0.44
-3 -2 -4 4.79 0.48
-3 -2 -4 4.53 0.47
3 2 4 5.92 0.48
3 2 4 4.37 0.43
3 2 4 5.59 0.5
-4 -2 -4 19.75 0.85
-4 -2 -4 17.4 0.86
-4 -2 -4 16.96 0.87
4 2 4 17.28 0.87
4 2 4 17.19 0.84
4 2 4 17.59 0.87
4 2 4 17.88 0.91
-5 -2 -4 10.18 0.82
-5 -2 -4 10.19 0.65
-5 -2 -4 9.46 0.77
5 2 4 10.19 0.72
5 2 4 11.08 0.83
5 2 4 10.06 0.82
5 2 4 9.61 0.81
-6 -2 -4 26.13 1.38
-6 -2 -4 25.73 1.4
-6 -2 -4 27.47 1.13
6 2 4 27.34 1.41
6 2 4 27.3 1.44
-7 -2 -4 2.21 0.69
-7 -2 -4 1.56 0.67
-7 -2 -4 1.37 0.42
7 2 4 1.3 0.63
7 2 4 1.05 0.57
7 2 4 0.89 0.66
-8 -2 -4 60.49 2.71
-8 -2 -4 60.31 2.73
8 2 4 61.33 2.74
8 2 4 59.73 2.64
-9 -2 -4 2.12 1.01
-9 -2 -4 0.94 1.13
9 2 4 2.63 1.15
9 2 4 3.6 0.96
7 -3 -4 1.58 1.35
7 -3 -4 2.85 1.43
7 -3 -4 -0.15 0.8
-7 3 4 -0.49 1.2
-7 3 4 0.91 1.42
6 -3 -4 -1.13 1
-6 3 4 -0.52 1.06
-6 3 4 0.19 0.98
5 -3 -4 40.4 1.3
5 -3 -4 41.6 2.36
5 -3 -4 48.13 2.47
-5 3 4 42.92 2.37
-5 3 4 39.46 2.37
4 -3 -4 13.84 1.34
4 -3 -4 12.69 1.33
-4 3 4 14.53 1.38
-4 3 4 13.05 1.16
3 -3 -4 115.85 4.02
3 -3 -4 124.31 4.07
-3 3 4 119.2 4.02
-3 3 4 112.33 4.03
2 -3 -4 4.09 0.61
2 -3 -4 6.28 0.8
-2 3 4 4.64 0.62
-2 3 4 3.97 0.64
1 -3 -4 3.44 0.51
1 -3 -4 3.14 0.5
-1 3 4 2.88 0.5
0 -3 -4 69.55 2.29
0 -3 -4 65.83 2.26
0 3 4 66.44 2.27
0 3 4 68.75 2.3
0 3 4 66.42 2.2
-1 -3 -4 81.65 2.61
-1 -3 -4 79.77 2.61
-1 -3 -4 83.55 2.61
1 3 4 84.07 2.62
1 3 4 81.02 2.61
1 3 4 83.49 2.63
-2 -3 -4 177.23 5.33
-2 -3 -4 183.6 5.35
-2 -3 -4 187.51 5.4
2 3 4 186.09 5.4
2 3 4 177.96 5.32
2 3 4 183.49 5.35
2 3 4 178.93 5.3
-3 -3 -4 15.48 0.85
-3 -3 -4 14.6 0.79
-3 -3 -4 14.51 0.8
3 3 4 14.76 0.8
3 3 4 14.61 0.74
3 3 4 14.91 0.81
3 3 4 15.31 0.69
-4 -3 -4 102.56 3.26
-4 -3 -4 103.85 3.27
4 3 4 101.31 3.17
4 3 4 109.42 3.3
4 3 4 98.47 3.24
4 3 4 97.05 3.15
-5 -3 -4 10.71 0.72
-5 -3 -4 8.54 0.83
-5 -3 -4 9.52 0.84
5 3 4 9.65 0.87
5 3 4 9.84 0.76
5 3 4 9.14 0.68
5 3 4 10.93 0.87
-6 -3 -4 6.46 0.67
-6 -3 -4 4.94 0.69
6 3 4 4.33 0.68
6 3 4 4.31 0.69
-7 -3 -4 12.27 1.29
-7 -3 -4 11.59 1.27
-7 -3 -4 11.69 0.85
7 3 4 11.66 1.08
7 3 4 9.7 1.18
7 3 4 10.71 1.19
-8 -3 -4 6.88 1.06
-8 -3 -4 8.17 0.81
-8 -3 -4 5.75 1.05
8 3 4 4.37 0.95
8 3 4 5.74 1.03
8 3 4 6.03 0.91
-9 -3 -4 41.94 2.71
-9 -3 -4 47.49 2.7
9 3 4 45.25 2.41
9 3 4 40.69 2.72
7 -4 -4 -0.8 1.47
7 -4 -4 1.61 0.94
7 -4 -4 -0.53 1.46
-7 4 4 0.22 1.54
-7 4 4 -0.97 1.28
6 -4 -4 0.42 1.21
6 -4 -4 0.14 0.7
6 -4 -4 -0.34 1.02
-6 4 4 0.28 1.13
-6 4 4 -0.66 1.02
5 -4 -4 8.24 1.06
5 -4 -4 4.89 1.85
5 -4 -4 6.52 1.16
-5 4 4 7.48 1.25
-5 4 4 6.13 1.15
4 -4 -4 16.82 1.52
4 -4 -4 17.84 1.57
-4 4 4 15.36 1.6
3 -4 -4 69.1 2.76
-3 4 4 68.53 2.79
2 -4 -4 129.85 4.37
2 -4 -4 135.03 4.43
-2 4 4 131.18 4.41
-2 4 4 136.4 4.4
1 -4 -4 13.73 1.01
1 -4 -4 14.46 1
-1 4 4 13.52 1.04
-1 4 4 13.36 0.97
0 -4 -4 32.66 1.44
0 4 4 35.58 1.48
0 4 4 32.43 1.31
0 4 4 33.23 1.47
-1 -4 -4 63.92 2.11
-1 -4 -4 65.67 2.24
-1 -4 -4 62.38 2.2
1 4 4 64.59 2.21
1 4 4 61.12 2.2
1 4 4 60.58 2.11
-2 -4 -4 80.1 2.6
-2 -4 -4 76.62 2.63
-2 -4 -4 81.34 2.66
2 4 4 80.76 2.61
2 4 4 79.51 2.66
2 4 4 81.48 2.66
-3 -4 -4 1.87 0.39
-3 -4 -4 2 0.42
-3 -4 -4 2.27 0.43
3 4 4 1.54 0.42
3 4 4 1.72 0.36
3 4 4 2.54 0.44
3 4 4 1.48 0.23
-4 -4 -4 23.12 1.17
-4 -4 -4 22.7 1.13
-4 -4 -4 22.02 1.16
4 4 4 24.18 0.99
4 4 4 23.37 1.03
4 4 4 24.12 1.2
4 4 4 22.55 1.19
-5 -4 -4 68.57 2.56
-5 -4 -4 69.83 2.52
5 4 4 69.03 2.36
5 4 4 70.84 2.59
5 4 4 67.92 2.53
5 4 4 66.97 2.28
-6 -4 -4 23.69 1.43
-6 -4 -4 23.37 1.46
6 4 4 21.79 1.43
6 4 4 23.11 1.13
6 4 4 28.89 1.26
6 4 4 22.45 1.48
-7 -4 -4 26.73 1.3
-7 -4 -4 26.89 1.79
-7 -4 -4 25.58 1.9
7 4 4 26.79 1.48
7 4 4 24.29 1.75
7 4 4 25.58 1.73
-8 -4 -4 46.81 2.53
-8 -4 -4 42.91 2.36
-8 -4 -4 44.09 1.79
8 4 4 47.57 2.49
8 4 4 46.53 2.22
8 4 4 49.6 2.54
-9 -4 -4 -1.43 1.02
-9 -4 -4 -0.21 1.15
9 4 4 0.16 1.19
9 4 4 -0.49 0.79
7 -5 -4 14.08 1.53
7 -5 -4 13.11 2.11
7 -5 -4 14.42 2.14
-7 5 4 15.6 2.22
6 -5 -4 5.57 1.42
6 -5 -4 3.25 0.9
6 -5 -4 4.47 1.37
-6 5 4 1.75 1.35
5 -5 -4 56.65 2.48
5 -5 -4 56.79 2.95
5 -5 -4 57.03 3.02
-5 5 4 54.71 3.01
4 -5 -4 0.56 0.79
4 -5 -4 1.76 0.85
-4 5 4 1.2 0.81
-4 5 4 0.69 0.99
3 -5 -4 10.14 1.22
3 -5 -4 8.93 0.83
3 -5 -4 7.68 1.02
-3 5 4 8.3 1.04
2 -5 -4 2.44 0.38
2 -5 -4 1.45 0.59
2 -5 -4 0.15 0.57
-2 5 4 2.61 0.66
-2 5 4 1.99 0.58
1 -5 -4 37.06 1.29
1 -5 -4 36.4 1.73
1 -5 -4 36.55 1.7
-1 5 4 36.39 1.71
-1 5 4 35.71 1.75
0 -5 -4 26.21 1.35
0 -5 -4 25.1 0.85
0 -5 -4 25.52 1.35
0 5 4 26.14 1.33
0 5 4 24.89 1.35
0 5 4 24.13 1.12
-1 -5 -4 8.28 0.82
-1 -5 -4 7.92 0.8
1 5 4 7.39 0.83
1 5 4 8.13 0.85
1 5 4 8.6 0.68
-2 -5 -4 18.02 1.06
-2 -5 -4 16.97 0.91
-2 -5 -4 18.27 1.07
2 5 4 18.08 1.08
2 5 4 18.13 1.07
2 5 4 17.58 0.91
-3 -5 -4 5.98 0.63
-3 -5 -4 5.91 0.77
-3 -5 -4 5.59 0.74
3 5 4 5.42 0.65
3 5 4 5.31 0.66
3 5 4 5.08 0.53
-4 -5 -4 178.29 5.45
-4 -5 -4 181.54 5.6
-4 -5 -4 180.75 5.6
4 5 4 181.44 5.6
4 5 4 176.15 5.59
4 5 4 174.28 5.31
-5 -5 -4 25.04 1.46
-5 -5 -4 23.47 1.28
-5 -5 -4 25.14 1.37
5 5 4 23.61 1.47
5 5 4 25.02 1.46
5 5 4 24.09 1.08
-6 -5 -4 0.38 0.58
-6 -5 -4 1.43 0.56
-6 -5 -4 0.54 0.64
6 5 4 0.71 0.61
6 5 4 0.58 0.4
-7 -5 -4 0.1 0.77
-7 -5 -4 0.96 0.76
7 5 4 0.66 0.48
7 5 4 0.45 0.74
7 5 4 0.84 0.54
-8 -5 -4 21.12 1.9
-8 -5 -4 16.66 1.74
-8 -5 -4 22.48 1.4
8 5 4 20.27 1.62
8 5 4 23.83 2
-9 -5 -4 23.97 2.26
-9 -5 -4 14.87 2.55
9 5 4 19.9 1.93
9 5 4 26.62 2.46
9 5 4 17.96 1.92
6 -6 -4 1.16 1.45
6 -6 -4 1.72 1.48
6 -6 -4 3.44 1.07
-6 6 4 4.16 1.43
-6 6 4 1.95 1.53
5 -6 -4 7.22 0.95
5 -6 -4 6.45 1.35
5 -6 -4 6.08 1.37
-5 6 4 6.58 1.37
-5 6 4 6.52 1.36
4 -6 -4 2.43 1.05
4 -6 -4 2.71 1.01
4 -6 -4 1.47 0.61
-4 6 4 3.21 1.01
-4 6 4 3.01 1.07
3 -6 -4 60.84 2.23
3 -6 -4 60.59 2.75
3 -6 -4 50.77 3.55
-3 6 4 49.46 3.5
-3 6 4 62.75 2.76
2 -6 -4 43.52 2.17
2 -6 -4 46.26 1.71
2 -6 -4 45.73 2.2
-2 6 4 41.57 2.14
-2 6 4 44.14 2.25
1 -6 -4 86.71 3.25
1 -6 -4 88.68 2.76
-1 6 4 97.04 3.34
-1 6 4 82.35 3.29
0 -6 -4 103.43 3.51
0 -6 -4 98.2 3.51
0 6 4 98.12 3.22
0 6 4 99.49 3.52
0 6 4 97.83 3.54
-1 -6 -4 5.25 0.73
-1 -6 -4 4.15 0.7
1 6 4 5.61 0.75
1 6 4 5.9 0.62
1 6 4 5.72 0.75
-2 -6 -4 0.09 0.47
-2 -6 -4 0.24 0.32
-2 -6 -4 1.69 0.48
2 6 4 0.08 0.46
2 6 4 -0.13 0.31
2 6 4 0.25 0.47
-3 -6 -4 18.49 1.02
-3 -6 -4 16.82 1.21
3 6 4 15.6 1.25
3 6 4 19.36 1.29
-4 -6 -4 10.24 1.12
-4 -6 -4 9.4 0.82
4 6 4 9.63 0.73
4 6 4 9.92 1.09
4 6 4 11.22 1.09
-5 -6 -4 24.95 1.58
-5 -6 -4 26.06 1.35
-5 -6 -4 25.62 1.6
5 6 4 26.34 1.63
5 6 4 24.3 1.54
5 6 4 24.96 1.16
-6 -6 -4 22.45 1.38
-6 -6 -4 25.02 1.67
-6 -6 -4 19.38 1.87
6 6 4 22.11 1.12
6 6 4 24.79 1.64
-7 -6 -4 0.6 0.89
-7 -6 -4 1.76 0.84
-7 -6 -4 -0.01 0.68
7 6 4 0.54 0.46
-8 -6 -4 -0.28 0.96
-8 -6 -4 0.24 0.8
-8 -6 -4 0.27 1.07
8 6 4 0.52 0.67
8 6 4 0.04 0.99
8 6 4 -0.05 1.08
-9 -6 -4 4.33 1.47
-9 -6 -4 2.4 1.28
9 6 4 2.55 1.02
9 6 4 2.83 1.94
9 6 4 4.25 1.51
5 -7 -4 -1.43 0.79
5 -7 -4 1.21 1.34
5 -7 -4 -2.51 1.16
-5 7 4 -0.53 1.4
-5 7 4 1.05 1.24
4 -7 -4 11.38 1.26
4 -7 -4 10.31 1.46
4 -7 -4 11.61 1.49
-4 7 4 10.93 1.54
-4 7 4 12.38 1.51
3 -7 -4 75.46 2.63
3 -7 -4 73.11 3.23
3 -7 -4 64.45 3.58
-3 7 4 72.31 3.24
-3 7 4 73.7 3.33
2 -7 -4 -0.78 0.75
2 -7 -4 0.11 0.38
-2 7 4 0.97 0.79
1 -7 -4 2.63 0.8
-1 7 4 5.5 0.57
0 -7 -4 15.21 1.39
0 -7 -4 18.27 1.41
0 7 4 18.08 1.07
0 7 4 15.26 1.3
0 7 4 18.61 1.47
-1 -7 -4 8.33 1.14
1 7 4 9.35 1.15
1 7 4 9.67 1.23
1 7 4 9.49 0.83
-2 -7 -4 -0.46 0.53
2 7 4 -0.72 0.56
2 7 4 0.1 0.12
2 7 4 -0.6 0.57
2 7 4 -0.17 0.34
-3 -7 -4 1.01 0.65
-3 -7 -4 1.16 0.61
-3 -7 -4 1.29 0.43
3 7 4 1.84 0.67
3 7 4 -0.05 0.58
-4 -7 -4 7.01 0.96
-4 -7 -4 8.37 0.87
-4 -7 -4 6.85 0.92
4 7 4 6.69 0.95
4 7 4 7.68 0.69
4 7 4 7.46 1.23
-5 -7 -4 -0.08 0.44
-5 -7 -4 -0.62 0.67
5 7 4 0.21 0.39
-6 -7 -4 8.11 1.18
-6 -7 -4 8.83 0.94
-6 -7 -4 8.33 1.15
6 7 4 7.88 0.8
-7 -7 -4 5.07 1.21
-7 -7 -4 6.75 1.18
-7 -7 -4 5.46 0.92
7 7 4 7.44 0.85
7 7 4 7.05 1.2
-8 -7 -4 29.99 2.46
-8 -7 -4 28.31 2.11
-8 -7 -4 30.89 2.63
8 7 4 29.64 2.6
5 -8 -4 0.62 1.48
5 -8 -4 -1.09 1.52
5 -8 -4 -0.15 0.94
-5 8 4 -2.56 1.65
-5 8 4 -0.96 1.4
4 -8 -4 -0.08 0.71
4 -8 -4 -0.17 1.23
4 -8 -4 -0.92 1.26
-4 8 4 1.54 1.22
-4 8 4 2.11 1.36
3 -8 -4 135.58 5.14
3 -8 -4 130.8 5.07
-3 8 4 140.29 5.16
-3 8 4 131.36 5.21
2 -8 -4 26.8 2.07
2 -8 -4 24.95 2.09
-2 8 4 26.91 2.12
-2 8 4 25.07 2.14
1 -8 -4 6.69 1.34
-1 8 4 7.02 1.15
-1 8 4 6.47 1.08
-1 8 4 6.26 0.76
0 -8 -4 6.3 1.04
0 -8 -4 5.36 1.02
0 8 4 5.79 1.08
0 8 4 4.31 0.93
-1 -8 -4 -0.2 0.72
-1 -8 -4 1.21 0.79
1 8 4 -0.87 0.68
-2 -8 -4 7.76 1.02
-2 -8 -4 7.26 1
2 8 4 7.78 0.43
2 8 4 5.98 0.68
2 8 4 8.11 1.33
-3 -8 -4 2.12 0.82
-3 -8 -4 2.13 0.85
3 8 4 2.32 0.86
-4 -8 -4 4.21 0.9
-4 -8 -4 2.46 0.92
-4 -8 -4 3.72 0.6
4 8 4 1.89 1.45
4 8 4 4.78 0.94
-5 -8 -4 22.4 1.35
-5 -8 -4 23.9 1.9
-5 -8 -4 19.74 1.72
5 8 4 21.09 1.16
5 8 4 23.4 1.96
-6 -8 -4 1.01 0.9
-6 -8 -4 0.39 0.65
-6 -8 -4 0.49 1.04
6 8 4 -0.34 0.96
6 8 4 -0.16 1.71
6 8 4 0.64 0.52
-7 -8 -4 19.67 2.03
-7 -8 -4 20.18 1.59
-7 -8 -4 22.74 2.38
7 8 4 21.91 1.25
7 8 4 24.91 2.5
7 8 4 21 2.28
-8 -8 -4 -1.13 1.22
-8 -8 -4 1.96 1.54
-8 -8 -4 1.31 0.98
8 8 4 -0.96 1.38
8 8 4 -0.99 1.36
4 -9 -4 0.61 1.51
4 -9 -4 0.42 1.06
4 -9 -4 0.23 1.5
-4 9 4 0.7 1.46
-4 9 4 1.51 1.7
3 -9 -4 0.3 1.3
3 -9 -4 2.24 1.36
-3 9 4 2.02 1.4
-3 9 4 1.83 1.37
2 -9 -4 44.57 2.82
2 -9 -4 44.07 2.9
-2 9 4 52.11 2.91
-2 9 4 40.04 2.87
-2 9 4 46.65 2.13
1 -9 -4 15.6 1.92
-1 9 4 13.06 1.58
-1 9 4 11.45 1.53
-1 9 4 14.23 1.25
0 -9 -4 54.48 2.86
0 -9 -4 54.89 2.9
0 9 4 56.89 2.99
0 9 4 57.41 2.27
0 9 4 53.91 2.87
-1 -9 -4 14.39 1.73
-1 -9 -4 16.67 1.81
1 9 4 15.28 2.32
1 9 4 18.11 1.83
-2 -9 -4 0.12 0.83
-2 -9 -4 0.37 0.9
2 9 4 -0.25 0.91
2 9 4 0.2 0.23
2 9 4 -1.52 0.8
-3 -9 -4 56.64 2.85
-3 -9 -4 56.6 2.8
3 9 4 58.18 2.94
3 9 4 54.83 1.86
3 9 4 56.81 2.94
-4 -9 -4 37.23 2.3
-4 -9 -4 33.97 2.33
4 9 4 42.4 2.72
4 9 4 35.36 2.48
-5 -9 -4 25.03 1.49
-5 -9 -4 23.53 2.14
-5 -9 -4 30.15 2.32
5 9 4 23.78 1.33
5 9 4 29.73 2.41
5 9 4 24.18 2.29
-6 -9 -4 0.46 1.04
-6 -9 -4 1.23 0.83
-6 -9 -4 -1.42 1.12
6 9 4 -0.01 1.14
6 9 4 0.26 1.23
6 9 4 0.35 0.56
-7 -9 -4 0.76 1.29
-7 -9 -4 -1.75 1.39
-7 -9 -4 -0.17 0.82
7 9 4 -0.74 1.37
7 9 4 -2.84 1.29
7 9 4 0.45 0.6
3 -10 -4 1.21 1.69
-3 10 4 -2.09 1.51
2 -10 -4 4.16 1.49
2 -10 -4 0.76 1.42
-2 10 4 -1.5 1.49
-2 10 4 -3.2 1.28
-2 10 4 0.05 0.79
1 -10 -4 13.32 1.79
-1 10 4 14.52 1.85
-1 10 4 12.92 1.79
-1 10 4 17.19 1.5
0 -10 -4 4.54 1.35
0 -10 -4 3.09 1.3
0 10 4 -0.2 1.25
0 10 4 4.5 1.29
-1 -10 -4 1.88 1.15
-1 -10 -4 3.78 1.21
1 10 4 3.72 1.29
1 10 4 3.25 0.73
1 10 4 2.22 1.25
-2 -10 -4 8.44 1.47
-2 -10 -4 14.57 1.79
2 10 4 8.27 1.5
2 10 4 9.04 0.65
2 10 4 7.38 1.46
-3 -10 -4 38.25 2.54
-3 -10 -4 36.35 2.6
3 10 4 37.61 2.68
3 10 4 33.58 2.66
3 10 4 37.32 1.4
-4 -10 -4 51.91 2.93
-4 -10 -4 43.02 2.91
4 10 4 47.94 3.06
4 10 4 46.64 3.02
-5 -10 -4 3.29 1.35
-5 -10 -4 4.08 1.43
5 10 4 6.3 1.61
5 10 4 4.72 0.77
5 10 4 4.52 1.5
-6 -10 -4 1.35 1.55
-6 -10 -4 1.98 1.35
6 10 4 -0.24 1.49
6 10 4 1.45 0.68
6 10 4 0.4 1.43
1 -11 -4 11.12 1.89
-1 11 4 12.64 1.89
-1 11 4 10.12 2.05
-1 11 4 10.39 1.25
0 -11 -4 11.49 1.91
0 -11 -4 11.58 1.77
0 11 4 9.97 1.83
0 11 4 10.63 1.42
0 11 4 9.76 1.91
-1 -11 -4 -0.13 1.32
-1 -11 -4 0.39 1.45
1 11 4 -0.18 0.72
1 11 4 0.32 1.48
1 11 4 0.29 1.35
-2 -11 -4 18.54 2.11
-2 -11 -4 17.52 1.98
2 11 4 22.87 2.89
2 11 4 23.69 2.93
2 11 4 19.78 1.44
-3 -11 -4 2.5 1.36
-3 -11 -4 4.98 1.56
3 11 4 3.99 0.5
3 11 4 1.89 1.53
3 11 4 2.99 1.61
-4 -11 -4 -0.66 1.48
-4 -11 -4 0.78 1.41
4 11 4 -0.01 1.38
4 11 4 0.03 0.5
4 11 4 0.73 1.63
2 8 -5 7.8 1.65
2 8 -5 12.47 1.85
-2 -8 5 10.64 2.01
1 8 -5 2.12 2.4
1 8 -5 1.67 1.34
-1 -8 5 4.51 1.41
-1 -8 5 3.04 1.28
0 8 -5 5.54 1.37
0 8 -5 6.87 1.54
0 8 -5 6.18 1.44
0 -8 5 8.43 1.5
-1 8 -5 2.98 1.24
-1 8 -5 5.12 1.38
-1 8 -5 5 1.42
1 -8 5 4.73 1.35
1 -8 5 3.52 0.86
-2 8 -5 2.16 1.23
-2 8 -5 -1.48 1.18
-2 8 -5 -1.22 1.22
2 -8 5 0.57 1.24
4 7 -5 12.99 1.9
4 7 -5 16.59 1.97
-4 -7 5 11.93 2.84
-4 -7 5 18.94 2.13
-4 -7 5 11.65 1.26
3 7 -5 34.44 2.71
3 7 -5 33.09 2.54
-3 -7 5 34.39 1.78
-3 -7 5 32.64 2.56
-3 -7 5 28.76 2.84
2 7 -5 13.14 1.54
2 7 -5 12.95 1.61
-2 -7 5 12.82 1.55
-2 -7 5 13.66 1.26
-2 -7 5 13.17 1.79
1 7 -5 0.49 1.01
1 7 -5 1.68 1.09
-1 -7 5 1.18 1.02
-1 -7 5 1.71 0.65
0 7 -5 3.85 1.06
0 7 -5 4.23 1.13
0 7 -5 0.57 0.95
0 -7 5 3.42 0.97
0 -7 5 3.86 0.72
0 -7 5 2.76 1.03
-1 7 -5 2.18 0.92
-1 7 -5 1.02 0.97
-1 7 -5 2.15 1.05
1 -7 5 3 0.74
1 -7 5 1.98 1
1 -7 5 2.58 0.9
-2 7 -5 4.44 0.37
-2 7 -5 3.94 1.07
-2 7 -5 4.73 1.09
-2 7 -5 3.24 1.11
2 -7 5 4.29 0.97
2 -7 5 5.06 0.83
2 -7 5 2.43 1
-3 7 -5 -0.13 1.04
-3 7 -5 -0.77 0.99
-3 7 -5 0.08 0.9
3 -7 5 -1.66 0.84
3 -7 5 1.85 0.69
-4 7 -5 9.83 1.4
-4 7 -5 10.95 1.36
-4 7 -5 8.82 1.48
4 -7 5 8.34 1.26
4 -7 5 10.71 1.25
4 -7 5 9.64 1.34
5 6 -5 -0.88 1.5
5 6 -5 -0.33 1.4
-5 -6 5 -1.85 1.49
-5 -6 5 0.19 1.47
-5 -6 5 -0.07 0.61
4 6 -5 4.33 1.24
4 6 -5 3.23 1.33
-4 -6 5 4.04 1.3
-4 -6 5 2.78 0.68
-4 -6 5 4.17 1.78
3 6 -5 4.98 1.21
3 6 -5 3.96 1.12
-3 -6 5 6.51 0.83
-3 -6 5 6.12 1.15
-3 -6 5 5.95 1.24
2 6 -5 0.98 0.92
2 6 -5 1.02 0.9
2 6 -5 2.06 0.45
-2 -6 5 1.69 0.8
-2 -6 5 1.12 0.57
-2 -6 5 1.1 0.91
1 6 -5 0.27 0.83
1 6 -5 0.46 0.86
-1 -6 5 0.91 0.8
-1 -6 5 0.87 0.82
-1 -6 5 1.08 0.58
0 6 -5 0.31 0.78
0 6 -5 0.45 0.77
0 -6 5 0.07 0.66
0 -6 5 0.22 0.52
-1 6 -5 1.65 0.78
-1 6 -5 1.04 0.77
1 -6 5 1.09 0.58
1 -6 5 0.23 0.65
-2 6 -5 2.53 0.36
-2 6 -5 4.28 0.86
-2 6 -5 2.48 0.99
-2 6 -5 2.6 0.83
2 -6 5 1.48 0.61
2 -6 5 2.21 0.73
-3 6 -5 6.82 1.05
-3 6 -5 5.49 0.95
-3 6 -5 7.12 1.13
3 -6 5 5.59 0.83
3 -6 5 4.82 0.9
-4 6 -5 0 0.82
-4 6 -5 0.32 0.96
-4 6 -5 -0.14 0.84
4 -6 5 0.66 0.57
4 -6 5 0.82 0.78
4 -6 5 0.96 0.78
-5 6 -5 -0.55 0.84
-5 6 -5 -1.04 0.96
-5 6 -5 -1.11 1.05
5 -6 5 -0.55 0.6
5 -6 5 0.95 0.93
5 -6 5 -1.07 0.82
6 5 -5 3.7 1.67
-6 -5 5 1.77 0.66
5 5 -5 4.17 1.32
5 5 -5 3.61 1.35
-5 -5 5 3.16 1.34
-5 -5 5 2.44 0.41
-5 -5 5 3.35 0.67
-5 -5 5 3.32 1.34
4 5 -5 10.38 1.42
4 5 -5 8.7 2.29
-4 -5 5 10.76 1
-4 -5 5 11.4 0.58
-4 -5 5 12.82 1.47
-4 -5 5 8.02 1.3
3 5 -5 2.76 0.93
3 5 -5 1.61 0.92
-3 -5 5 1.38 0.54
2 5 -5 4.2 0.95
2 5 -5 4.66 0.49
2 5 -5 3.37 0.89
-2 -5 5 4.65 0.68
-2 -5 5 5.11 0.89
1 5 -5 25.38 1.16
1 5 -5 22.24 1.65
-1 -5 5 23.87 1.62
-1 -5 5 27.15 1.4
-1 -5 5 24.03 1.66
0 5 -5 53.16 2.3
0 5 -5 50.17 2.32
0 -5 5 53.31 2.35
0 -5 5 55.83 2.14
0 -5 5 51.8 2.27
-1 5 -5 1.88 0.64
-1 5 -5 1.82 0.64
-1 5 -5 1.06 0.69
1 -5 5 2.18 0.61
1 -5 5 2.12 0.57
-2 5 -5 -0.44 0.66
-2 5 -5 0.62 0.3
-2 5 -5 -0.36 0.53
-2 5 -5 0.39 0.58
2 -5 5 0.41 0.55
2 -5 5 -0.08 0.47
-3 5 -5 60.1 2.53
-3 5 -5 62.96 2.54
3 -5 5 59.53 2.44
3 -5 5 62.47 2.41
-4 5 -5 11.37 1.48
-4 5 -5 10.14 1.25
-4 5 -5 6.81 0.93
4 -5 5 7.88 0.91
4 -5 5 10.26 1.24
4 -5 5 9.73 1.01
-5 5 -5 7.16 0.96
-5 5 -5 6.47 1.01
-5 5 -5 6.19 1.11
5 -5 5 5.72 0.95
5 -5 5 6.75 0.84
-6 5 -5 -0.77 0.82
-6 5 -5 0.58 0.94
-6 5 -5 1.48 1.04
6 -5 5 0.25 0.89
6 -5 5 -0.96 0.86
6 -5 5 0.09 0.6
6 4 -5 4.87 1.52
6 4 -5 1.99 1.37
-6 -4 5 2.73 0.61
-6 -4 5 0.55 1.41
-6 -4 5 2.89 1.5
5 4 -5 10.71 1.47
5 4 -5 8.31 1.37
-5 -4 5 8.77 1.43
-5 -4 5 9.27 0.93
-5 -4 5 5.05 1.9
4 4 -5 1.7 0.93
4 4 -5 0.63 0.94
-4 -4 5 0.64 0.9
-4 -4 5 1.83 0.51
3 4 -5 4.78 0.95
3 4 -5 5.19 0.93
-3 -4 5 5.44 0.63
-3 -4 5 4.47 0.42
-3 -4 5 4.99 0.92
2 4 -5 139.91 4.7
2 4 -5 137.21 4.69
-2 -4 5 135.2 4.31
-2 -4 5 138.53 4.62
-2 -4 5 131.65 4.68
1 4 -5 341.85 9.9
1 4 -5 350.33 10.44
1 4 -5 348.26 10.44
-1 -4 5 350.78 10.42
-1 -4 5 357.96 10.22
-1 -4 5 350.97 10.4
0 4 -5 21.67 1.29
0 4 -5 18.75 1.26
0 -4 5 18.6 1.26
0 -4 5 19.79 1.23
0 -4 5 18.74 1.12
-1 4 -5 16.33 1.12
-1 4 -5 14.68 1.25
-1 4 -5 16.04 0.63
1 -4 5 14.09 1.01
1 -4 5 14.74 1.08
1 -4 5 14.64 1.05
-2 4 -5 4.71 0.53
-2 4 -5 4.87 0.78
-2 4 -5 5.48 0.66
2 -4 5 5.59 0.66
2 -4 5 5.28 0.65
2 -4 5 5.46 1.13
-3 4 -5 11.56 1.06
-3 4 -5 12.73 1.24
-3 4 -5 11.89 1.05
3 -4 5 13.44 1.04
3 -4 5 13.13 0.98
-4 4 -5 8.46 1.03
-4 4 -5 8.67 0.97
4 -4 5 9.42 1.03
4 -4 5 8.94 1.01
4 -4 5 8.83 0.91
-5 4 -5 -0.46 0.61
-5 4 -5 0 0.66
5 -4 5 -0.37 0.46
5 -4 5 0.28 0.6
5 -4 5 -0.58 0.56
-6 4 -5 9.04 1.18
-6 4 -5 8.79 0.98
-6 4 -5 10.7 1.42
6 -4 5 9.01 1.03
6 -4 5 8.31 1
-7 4 -5 0.07 0.83
-7 4 -5 1.07 0.95
7 -4 5 0.17 0.59
7 -4 5 1.74 0.9
7 -4 5 -0.18 1
7 -4 5 1.33 0.93
7 3 -5 1.46 1.63
-7 -3 5 0.31 1.81
6 3 -5 3.85 1.3
6 3 -5 2.9 1.38
-6 -3 5 3.53 1.39
-6 -3 5 4.17 1.48
-6 -3 5 4.09 0.56
5 3 -5 36.36 2.41
5 3 -5 38.76 2.39
-5 -3 5 36.21 2.43
-5 -3 5 37.15 1.56
-5 -3 5 37.65 2.44
4 3 -5 0.92 0.79
4 3 -5 0.37 0.83
-4 -3 5 0.46 0.42
3 3 -5 26.58 1.73
3 3 -5 26.68 1.73
-3 -3 5 26.56 1.24
-3 -3 5 26.53 1.7
-3 -3 5 25.82 1.93
2 3 -5 10.13 1.11
2 3 -5 11.4 1.11
-2 -3 5 10.31 1.13
-2 -3 5 11.16 0.85
-2 -3 5 10.98 0.56
-2 -3 5 9.75 1.07
1 3 -5 52.73 1.68
1 3 -5 51.05 2.1
-1 -3 5 52.38 2.11
-1 -3 5 52.8 2.08
-1 -3 5 51.57 1.93
0 3 -5 0.67 0.38
0 3 -5 -0.07 0.39
0 3 -5 0.07 0.38
0 -3 5 0.01 0.36
0 -3 5 0.25 0.38
0 -3 5 0.33 0.41
-1 3 -5 4.17 0.54
-1 3 -5 4.85 0.66
-1 3 -5 5.4 0.42
1 -3 5 5.28 0.6
1 -3 5 5.7 0.68
1 -3 5 5.83 0.68
-2 3 -5 -0.03 0.49
-2 3 -5 0.02 0.36
-2 3 -5 0.51 0.34
-2 3 -5 0.03 0.26
2 -3 5 0.42 0.34
2 -3 5 0.65 0.43
2 -3 5 -0.22 0.33
-3 3 -5 9.39 0.78
-3 3 -5 8.19 1
-3 3 -5 8.16 0.79
3 -3 5 7.49 0.79
3 -3 5 8.22 0.73
3 -3 5 8.14 0.75
-4 3 -5 89.49 2.95
4 -3 5 84.91 2.93
4 -3 5 83.89 2.88
4 -3 5 86.97 2.91
-5 3 -5 109.19 3.55
-5 3 -5 103.07 3.54
5 -3 5 103.4 3.47
5 -3 5 106.54 3.51
5 -3 5 106.52 3.53
5 -3 5 99.95 3.91
-6 3 -5 21.16 1.45
6 -3 5 19.57 1.39
6 -3 5 20.01 1.23
6 -3 5 19.6 1.41
6 -3 5 21.17 1.66
-7 3 -5 7.13 0.99
-7 3 -5 6.94 1.03
7 -3 5 7.73 1.14
7 -3 5 6.22 0.96
7 -3 5 8.89 1.04
7 -3 5 9.72 0.98
-8 3 -5 -0.57 0.93
-8 3 -5 0.23 1.05
8 -3 5 0.42 0.6
8 -3 5 0.99 1.02
8 -3 5 0.92 1.08
8 -3 5 1.81 1.03
7 2 -5 1.97 1.47
7 2 -5 1.57 1.55
-7 -2 5 -1.14 1.56
-7 -2 5 0.9 1.54
6 2 -5 9.06 1.47
6 2 -5 10.03 1.43
-6 -2 5 10.27 1.6
-6 -2 5 7.26 1.45
5 2 -5 19.88 1.88
-5 -2 5 20.07 0.98
-5 -2 5 17.4 1.88
-5 -2 5 19.32 1.84
4 2 -5 2.04 0.8
-4 -2 5 1.34 0.41
-4 -2 5 0.12 0.68
3 2 -5 36.64 1.85
3 2 -5 35.26 1.84
-3 -2 5 35.37 1.45
-3 -2 5 36.82 1.89
-3 -2 5 36.88 1.84
2 2 -5 -0.06 0.46
-2 -2 5 -0.27 0.46
-2 -2 5 -0.04 0.22
-2 -2 5 0.45 0.46
1 2 -5 2.11 0.5
1 2 -5 2.74 0.3
1 2 -5 2.18 0.48
-1 -2 5 2.23 0.51
-1 -2 5 2.04 0.49
-1 -2 5 2.27 0.49
-1 -2 5 2.08 0.27
0 2 -5 0.91 0.36
0 2 -5 0.55 0.33
0 2 -5 0.55 0.31
0 -2 5 0.84 0.36
0 -2 5 1.29 0.36
0 -2 5 1.13 0.36
-1 2 -5 62.83 2.01
-1 2 -5 64.24 2.15
-1 2 -5 64.22 2.13
1 -2 5 62.11 2.11
1 -2 5 65.55 2.12
1 -2 5 63.81 2.2
-2 2 -5 117.82 3.88
-2 2 -5 113.96 3.56
-2 2 -5 114.41 3.56
-2 2 -5 115.28 3.55
2 -2 5 123.86 3.71
2 -2 5 120.1 3.55
-3 2 -5 41.34 1.48
-3 2 -5 41.45 1.51
-3 2 -5 41.9 1.81
3 -2 5 39.93 1.45
3 -2 5 41.63 1.62
-4 2 -5 16.38 0.94
-4 2 -5 16.86 0.9
-4 2 -5 17.39 1.2
4 -2 5 16.76 0.99
4 -2 5 16.35 0.87
4 -2 5 12.35 0.91
-5 2 -5 267.85 8.93
-5 2 -5 313.45 8.98
5 -2 5 322.16 8.97
5 -2 5 313.56 9.34
5 -2 5 306.96 8.93
5 -2 5 314.07 8.97
-6 2 -5 54.45 2.22
-6 2 -5 52.87 2.23
6 -2 5 58.89 2.26
6 -2 5 57.8 2.58
6 -2 5 54.88 2.22
6 -2 5 58.41 2.15
-7 2 -5 0.72 0.63
-7 2 -5 0.74 0.71
7 -2 5 0.58 0.65
7 -2 5 0.31 0.53
7 -2 5 0.68 0.74
-8 2 -5 0.02 0.77
-8 2 -5 0.55 0.93
8 -2 5 -0.77 0.83
8 -2 5 0.45 0.92
8 -2 5 0.45 0.54
8 -2 5 1.34 0.89
7 1 -5 0.93 1.48
7 1 -5 -2.46 1.35
-7 -1 5 2.56 1.59
-7 -1 5 1.22 1.47
6 1 -5 16.96 2.04
6 1 -5 17.11 2.06
-6 -1 5 20.1 2.25
-6 -1 5 21.59 2.26
5 1 -5 17.81 1.73
5 1 -5 13.69 1.6
-5 -1 5 13 1.62
-5 -1 5 12.8 0.59
-5 -1 5 10.34 1.31
4 1 -5 14.24 1.4
4 1 -5 11.3 1.38
-4 -1 5 14.6 1.4
-4 -1 5 12.79 0.75
-4 -1 5 13.46 0.48
3 1 -5 20.76 1.4
3 1 -5 18.51 1.31
-3 -1 5 20.64 1.4
-3 -1 5 19.89 0.93
-3 -1 5 19.31 0.67
-3 -1 5 20.32 1.32
2 1 -5 0.48 0.45
2 1 -5 0.36 0.42
-2 -1 5 0.42 0.43
-2 -1 5 0.09 0.45
-2 -1 5 0.32 0.17
-2 -1 5 0.4 0.31
1 1 -5 3.93 0.52
1 1 -5 5.43 0.67
-1 -1 5 4.49 0.48
-1 -1 5 4.17 0.54
-1 -1 5 3.56 0.44
-1 -1 5 4.38 0.53
-1 -1 5 4.4 0.37
0 1 -5 24.73 1.07
0 1 -5 25.1 0.96
0 1 -5 25.15 1.08
0 -1 5 25.02 0.92
0 -1 5 23.92 1.05
0 -1 5 25.17 1.08
0 -1 5 24.64 0.96
0 -1 5 25.14 1.06
-1 1 -5 52.04 1.71
-1 1 -5 48.81 1.65
-1 1 -5 51.55 1.66
-1 1 -5 48.53 1.65
1 -1 5 51.05 1.63
1 -1 5 49.14 1.77
-2 1 -5 24.98 0.88
-2 1 -5 25.69 1.03
-2 1 -5 25.1 0.89
-2 1 -5 24.98 1.24
2 -1 5 24.62 0.85
2 -1 5 21.03 1.22
-3 1 -5 0.87 0.21
-3 1 -5 1.37 0.44
-3 1 -5 0.79 0.22
3 -1 5 0.71 0.19
3 -1 5 0.8 0.21
-4 1 -5 19.1 0.88
-4 1 -5 21.73 1.21
4 -1 5 18.77 0.85
4 -1 5 23.08 1.18
4 -1 5 18.76 1.02
-5 1 -5 0.43 0.34
-5 1 -5 0.26 0.38
-5 1 -5 0.97 0.52
5 -1 5 0.96 0.36
5 -1 5 0.6 0.42
5 -1 5 0.27 0.34
5 -1 5 0.62 0.49
-6 1 -5 12.66 1.06
6 -1 5 13.44 1.26
6 -1 5 14.13 1.06
6 -1 5 12.71 0.93
6 -1 5 13.21 1.04
-7 1 -5 0.67 0.63
7 -1 5 0.46 0.61
7 -1 5 -0.35 0.57
7 -1 5 -0.38 0.43
7 -1 5 0.6 0.62
-8 1 -5 32.95 2.01
8 -1 5 28.72 1.96
8 -1 5 31.04 2.09
8 -1 5 30.87 1.9
-9 1 -5 1.8 1.17
9 -1 5 0.44 1.12
9 -1 5 2.33 1.12
9 -1 5 3.92 1.22
7 0 -5 4.97 1.58
7 0 -5 7.07 1.53
-7 0 5 3.94 1.52
-7 0 5 6.42 1.67
6 0 -5 8.29 1.39
6 0 -5 10.92 1.45
-6 0 5 10.75 1.49
-6 0 5 12.55 1.52
5 0 -5 13.4 1.6
5 0 -5 14.4 1.66
-5 0 5 17.71 1.73
-5 0 5 19.4 1.79
4 0 -5 2.79 0.76
4 0 -5 3.08 0.77
-4 0 5 2.56 0.94
3 0 -5 14.85 1.09
3 0 -5 12.88 1.11
-3 0 5 11.47 1.16
-3 0 5 11.07 0.66
-3 0 5 15.19 1.2
2 0 -5 267.03 7.91
2 0 -5 259.74 7.86
-2 0 5 273.76 7.9
-2 0 5 256.45 7.57
-2 0 5 267.93 7.91
-2 0 5 257.75 7.46
1 0 -5 63.8 1.99
1 0 -5 57.54 2.12
1 0 -5 60.15 2.15
-1 0 5 60.1 2
-1 0 5 60.29 1.88
-1 0 5 60.39 2.15
-1 0 5 60.28 2.01
-1 0 5 63.33 2.16
0 0 -5 6.91 0.56
0 0 -5 7.63 0.57
0 0 -5 7.55 0.57
0 0 5 8.4 0.58
0 0 5 6.98 0.58
0 0 5 7.49 0.54
0 0 5 7.69 0.49
0 0 5 7.52 0.57
-1 0 -5 4.17 0.47
-1 0 -5 4.56 0.36
-1 0 -5 4.9 0.36
-1 0 -5 4.39 0.51
-1 0 -5 4.51 0.49
1 0 5 4.32 0.35
1 0 5 4.08 0.46
1 0 5 4.71 0.53
1 0 5 4.46 0.43
1 0 5 4.25 0.34
-2 0 -5 72.36 2.43
-2 0 -5 79.16 2.44
-2 0 -5 74.71 2.54
-2 0 -5 78.41 2.45
2 0 5 73.77 2.39
2 0 5 74.97 2.46
-3 0 -5 11.48 0.43
-3 0 -5 10.99 0.71
-3 0 -5 12.2 0.85
-3 0 -5 11.64 0.43
3 0 5 11.31 0.74
3 0 5 11.62 0.7
-4 0 -5 16.27 0.76
-4 0 -5 18.26 0.92
-4 0 -5 16.05 1.03
4 0 5 19.04 1.08
4 0 5 17.13 0.72
4 0 5 18.06 0.74
4 0 5 16.56 0.9
-5 0 -5 0.33 0.41
-5 0 -5 0.38 0.33
-5 0 -5 0.01 0.43
-5 0 -5 0.13 0.29
5 0 5 0.38 0.31
5 0 5 -0.08 0.29
-6 0 -5 6.3 0.85
6 0 5 6.56 0.82
6 0 5 6.72 0.85
6 0 5 8.13 0.73
6 0 5 6.56 0.81
-7 0 -5 3.14 0.73
-7 0 -5 2.83 0.66
7 0 5 3.36 0.82
7 0 5 3.31 0.74
7 0 5 3.07 0.68
-8 0 -5 0.09 0.74
-8 0 -5 1.63 0.78
8 0 5 2.36 0.8
8 0 5 1.26 0.79
-9 0 -5 0.92 0.95
-9 0 -5 1.04 1.09
9 0 5 -0.09 0.95
9 0 5 -0.05 0.93
9 0 5 -1.04 0.98
7 -1 -5 21.07 2.51
7 -1 -5 17.03 1.95
-7 1 5 24.22 2.85
-7 1 5 20.05 2.51
6 -1 -5 18.7 2.02
6 -1 -5 18.46 2.04
-6 1 5 17.16 2.09
-6 1 5 18.23 2.1
5 -1 -5 22.65 2.38
5 -1 -5 23.66 1.94
-5 1 5 23.05 1.9
-5 1 5 23.35 1.89
4 -1 -5 33.67 1.94
4 -1 -5 35.99 1.93
-4 1 5 37.31 2.05
3 -1 -5 0.11 0.5
3 -1 -5 -0.1 0.25
-3 1 5 0.01 0.52
-3 1 5 -0.03 0.51
2 -1 -5 135.12 4.33
2 -1 -5 133.76 3.97
2 -1 -5 136.58 4.36
-2 1 5 132.3 4.3
-2 1 5 135.1 4.34
1 -1 -5 3.91 0.5
1 -1 -5 3.69 0.51
1 -1 -5 4.24 0.42
-1 1 5 4.15 0.45
-1 1 5 3.34 0.49
-1 1 5 3.59 0.49
-1 1 5 4.39 0.49
0 -1 -5 33.11 1.21
0 -1 -5 31.91 1.22
0 -1 -5 31.74 1.24
0 1 5 32.4 1.16
0 1 5 31.34 1.22
0 1 5 31.83 1.21
0 1 5 33.97 1.23
0 1 5 32.51 1.24
-1 -1 -5 23.86 0.86
-1 -1 -5 22.56 0.99
-1 -1 -5 22.18 0.92
-1 -1 -5 25.9 0.97
-1 -1 -5 25.26 1.01
1 1 5 24.48 1.02
1 1 5 24.65 0.96
1 1 5 27.17 1.04
1 1 5 24.04 0.85
-2 -1 -5 126.01 3.91
-2 -1 -5 133.28 3.88
-2 -1 -5 132.52 3.87
-2 -1 -5 125.08 3.91
2 1 5 124.74 3.88
2 1 5 130 3.87
-3 -1 -5 84.28 2.38
-3 -1 -5 88.95 2.66
-3 -1 -5 82.5 2.73
-3 -1 -5 81.83 2.37
-3 -1 -5 81.79 2.71
3 1 5 78.84 2.64
3 1 5 83.93 2.74
3 1 5 83.97 2.66
-4 -1 -5 6.88 0.71
-4 -1 -5 6.19 0.6
-4 -1 -5 6.25 0.45
-4 -1 -5 5.54 0.48
4 1 5 5.61 0.62
4 1 5 5.62 0.46
4 1 5 5.91 0.6
4 1 5 4.32 0.55
4 1 5 6.15 0.43
-5 -1 -5 224.05 6.46
-5 -1 -5 219.2 6.47
-5 -1 -5 222.48 6.45
5 1 5 221.84 6.46
5 1 5 220.17 6.44
5 1 5 213.15 6.68
-6 -1 -5 55.25 1.87
-6 -1 -5 49.11 2
6 1 5 50.96 2.15
6 1 5 52.71 1.99
6 1 5 50.91 2
-7 -1 -5 31.68 1.68
-7 -1 -5 33.39 1.71
7 1 5 30.74 1.65
7 1 5 34.49 2.08
-8 -1 -5 28.85 1.87
-8 -1 -5 27.86 1.87
8 1 5 30.38 1.86
8 1 5 28.41 1.82
-9 -1 -5 1.34 1.04
-9 -1 -5 1.3 0.96
9 1 5 0.51 0.97
9 1 5 -0.52 0.85
9 1 5 2.95 1.04
7 -2 -5 4.34 1.56
7 -2 -5 2.91 1.39
-7 2 5 3.67 1.6
-7 2 5 2.97 1.35
6 -2 -5 1.77 1.14
6 -2 -5 -0.03 1.04
-6 2 5 -1.01 1.02
-6 2 5 1.06 1.13
5 -2 -5 42.18 2.85
5 -2 -5 53.93 2.68
-5 2 5 50.46 2.56
-5 2 5 51.25 2.63
4 -2 -5 0.41 0.33
4 -2 -5 -0.24 0.67
4 -2 -5 0.34 0.71
-4 2 5 0.34 0.71
3 -2 -5 31.67 1.15
3 -2 -5 31.24 1.65
-3 2 5 31.04 1.67
-3 2 5 32.31 1.72
2 -2 -5 6.51 0.53
2 -2 -5 7.72 0.83
2 -2 -5 7.37 0.82
-2 2 5 7.76 0.88
-2 2 5 5.96 0.7
1 -2 -5 3.28 0.52
1 -2 -5 4.63 0.5
1 -2 -5 3.53 0.5
-1 2 5 3.77 0.52
-1 2 5 4.25 0.52
-1 2 5 5.18 0.65
0 -2 -5 0.56 0.29
0 -2 -5 1.1 0.3
0 -2 -5 0.55 0.29
0 2 5 1.07 0.3
0 2 5 0.54 0.3
-1 -2 -5 0.36 0.29
-1 -2 -5 -0.03 0.26
-1 -2 -5 0.35 0.22
-1 -2 -5 -0.02 0.2
1 2 5 0.04 0.21
1 2 5 -0.05 0.16
1 2 5 0.27 0.26
1 2 5 0.25 0.26
-2 -2 -5 62.38 2.03
-2 -2 -5 62.94 2.05
-2 -2 -5 62.4 1.88
-2 -2 -5 60.73 2
-2 -2 -5 60.63 2.1
2 2 5 61.66 1.87
2 2 5 61.85 2.11
2 2 5 62.63 1.88
2 2 5 63.04 2.04
-3 -2 -5 13.86 0.64
-3 -2 -5 15.92 0.8
-3 -2 -5 15.35 0.88
-3 -2 -5 15.63 0.8
-3 -2 -5 15.34 0.63
3 2 5 15.28 0.75
3 2 5 15.09 0.78
3 2 5 13.94 0.63
3 2 5 15.45 0.63
-4 -2 -5 1.16 0.37
-4 -2 -5 0.92 0.28
-4 -2 -5 1.65 0.36
-4 -2 -5 0.84 0.26
-4 -2 -5 0.99 0.33
4 2 5 1.29 0.38
4 2 5 0.6 0.3
4 2 5 1.21 0.27
-5 -2 -5 192.57 5.66
-5 -2 -5 185.23 5.65
-5 -2 -5 191.47 5.61
5 2 5 182.65 5.63
5 2 5 193.46 5.8
5 2 5 192.32 5.69
5 2 5 191.27 5.66
-6 -2 -5 1.56 0.49
-6 -2 -5 2.72 0.46
6 2 5 2.41 0.53
6 2 5 0.86 0.52
6 2 5 2.06 0.51
-7 -2 -5 1.44 0.5
-7 -2 -5 0.94 0.6
-7 -2 -5 0.57 0.56
7 2 5 1.95 0.63
7 2 5 0.91 0.56
7 2 5 0.59 0.95
-8 -2 -5 -0.03 0.68
-8 -2 -5 -0.46 0.7
-8 -2 -5 -1.01 0.52
8 2 5 -0.24 0.71
8 2 5 -0.15 0.66
-9 -2 -5 1.38 1.07
-9 -2 -5 1.33 1.02
9 2 5 2.35 0.96
9 2 5 1.21 0.86
9 2 5 0.71 1.01
7 -3 -5 6.6 1.69
7 -3 -5 5.47 1.7
-7 3 5 2.8 1.51
-7 3 5 6.01 1.76
6 -3 -5 59.18 3.17
6 -3 -5 60.45 3.29
-6 3 5 57.69 3.19
-6 3 5 57.56 3.21
5 -3 -5 29.6 2.19
5 -3 -5 32.57 1.16
5 -3 -5 34.98 2.24
-5 3 5 35.36 2.28
-5 3 5 33.09 2.26
4 -3 -5 20.23 0.89
4 -3 -5 21.29 1.65
4 -3 -5 20.98 1.63
3 -3 -5 5.87 0.58
3 -3 -5 5.48 0.82
-3 3 5 6.15 0.85
-3 3 5 7.37 0.91
2 -3 -5 0.07 0.48
2 -3 -5 0.84 0.3
2 -3 -5 0.65 0.49
-2 3 5 0.42 0.47
-2 3 5 0.64 0.49
1 -3 -5 70.13 2.53
1 -3 -5 73.97 2.59
-1 3 5 72.94 2.59
0 -3 -5 3.96 0.5
0 -3 -5 4.04 0.49
0 3 5 3.57 0.49
0 3 5 3.57 0.48
0 3 5 5.04 0.56
-1 -3 -5 13.12 0.73
-1 -3 -5 13.39 0.75
1 3 5 12.71 0.77
1 3 5 12.71 0.75
1 3 5 12.25 0.74
-2 -3 -5 131.46 3.96
-2 -3 -5 132.19 3.87
-2 -3 -5 134.32 3.97
-2 -3 -5 132.06 4.08
2 3 5 136.15 4.1
2 3 5 129.61 3.96
2 3 5 135.85 3.96
2 3 5 130.98 4
-3 -3 -5 112.52 3.42
-3 -3 -5 111.9 3.57
-3 -3 -5 111.01 3.41
-3 -3 -5 115.51 3.46
-3 -3 -5 109.93 3.36
3 3 5 111.92 3.47
3 3 5 115.01 3.41
3 3 5 110.02 3.41
3 3 5 113.45 3.4
-4 -3 -5 2.61 0.39
-4 -3 -5 2.29 0.37
-4 -3 -5 2.83 0.45
-4 -3 -5 2.11 0.46
4 3 5 2.6 0.4
4 3 5 2.67 0.43
4 3 5 2.8 0.4
4 3 5 3.05 0.41
-5 -3 -5 2.79 0.46
-5 -3 -5 4.34 0.53
-5 -3 -5 3.67 0.51
5 3 5 3.79 0.52
5 3 5 3.48 0.51
5 3 5 3.29 0.46
5 3 5 3.64 0.5
-6 -3 -5 2.19 0.48
-6 -3 -5 1.27 0.49
6 3 5 0.95 0.45
6 3 5 1.89 0.53
6 3 5 1.5 0.55
-7 -3 -5 4.54 0.61
-7 -3 -5 3.34 0.74
-7 -3 -5 4.18 0.76
7 3 5 4.21 0.73
7 3 5 4.24 0.81
7 3 5 2.78 0.63
-8 -3 -5 34.44 1.52
-8 -3 -5 30.47 2
-8 -3 -5 33.21 1.99
8 3 5 34.05 1.96
8 3 5 33.93 1.87
-9 -3 -5 0.92 0.98
-9 -3 -5 0.24 1.02
9 3 5 -1.02 0.81
9 3 5 -0.84 0.91
9 3 5 -0.98 0.96
7 -4 -5 11.61 1.99
7 -4 -5 11.49 1.4
7 -4 -5 8.32 1.99
-7 4 5 16.02 2.19
-7 4 5 8.67 1.84
6 -4 -5 4.8 1.41
6 -4 -5 7.95 1.5
-6 4 5 6.05 1.41
-6 4 5 5.97 1.54
5 -4 -5 1.65 0.96
5 -4 -5 0.09 0.35
5 -4 -5 -0.14 0.94
-5 4 5 -0.21 0.97
-5 4 5 1.12 1.01
4 -4 -5 8.79 0.73
4 -4 -5 9.31 1.15
4 -4 -5 7.14 1.12
-4 4 5 7.04 1.1
-4 4 5 7.64 1.12
3 -4 -5 56.55 2.47
3 -4 -5 51.67 2.41
-3 4 5 53.95 2.46
2 -4 -5 102.89 4.01
2 -4 -5 125.5 4.07
-2 4 5 127.79 4.12
1 -4 -5 20.7 1.21
1 -4 -5 18.97 1.22
-1 4 5 20.06 1.22
-1 4 5 22.73 1.26
0 -4 -5 237.34 7.29
0 -4 -5 245.65 7.34
0 4 5 259.03 7.35
0 4 5 247.55 7.24
0 4 5 237.9 7.31
-1 -4 -5 123.87 3.79
-1 -4 -5 118.92 3.81
-1 -4 -5 121.88 3.84
1 4 5 123.73 3.83
1 4 5 123.02 3.85
1 4 5 118.58 3.79
-2 -4 -5 135.8 4.17
-2 -4 -5 131.01 4.15
-2 -4 -5 134.19 4.17
2 4 5 138.13 4.16
2 4 5 139.13 4.2
2 4 5 133.05 4.16
-3 -4 -5 0.63 0.35
-3 -4 -5 0.36 0.36
-3 -4 -5 1.22 0.37
3 4 5 0.98 0.36
3 4 5 0.72 0.36
3 4 5 1.04 0.23
3 4 5 1.11 0.38
-4 -4 -5 10.01 0.85
-4 -4 -5 9.04 0.77
-4 -4 -5 9.6 0.78
4 4 5 9.36 0.8
4 4 5 9.18 0.8
4 4 5 9.86 0.63
4 4 5 9.7 0.72
-5 -4 -5 4.4 0.63
-5 -4 -5 4.58 0.6
5 4 5 3.95 0.58
5 4 5 5.5 0.63
5 4 5 4.86 0.65
5 4 5 4.01 0.53
-6 -4 -5 19.24 1.31
-6 -4 -5 21.01 1.12
-6 -4 -5 21.68 1.33
6 4 5 20.35 1.29
6 4 5 20.81 1.2
6 4 5 22.22 1.11
6 4 5 20.97 1.35
-7 -4 -5 40.6 2.05
-7 -4 -5 40.94 1.72
7 4 5 43.49 2.08
7 4 5 40.78 2.07
7 4 5 41.65 1.87
-8 -4 -5 25 1.84
-8 -4 -5 24.02 1.85
-8 -4 -5 24.84 1.42
8 4 5 23.6 1.77
8 4 5 21.43 1.83
8 4 5 24.48 1.68
-9 -4 -5 1.73 1.04
-9 -4 -5 1.47 1.12
9 4 5 3.02 1.19
9 4 5 1.66 0.87
6 -5 -5 2.34 1.37
6 -5 -5 -1.38 1.33
6 -5 -5 -0.57 0.8
-6 5 5 0.47 1.36
5 -5 -5 27.51 2.33
5 -5 -5 26.93 1.82
5 -5 -5 28.81 2.3
-5 5 5 23.77 2.28
4 -5 -5 31.74 2.14
4 -5 -5 32.28 1.64
4 -5 -5 36.34 2.22
-4 5 5 28.36 2.14
-4 5 5 33.05 2.13
3 -5 -5 8.91 1.11
3 -5 -5 8.82 0.82
3 -5 -5 7.8 1.04
-3 5 5 4.93 1.14
2 -5 -5 3.12 0.71
2 -5 -5 4.24 0.7
-2 5 5 2.98 0.77
-2 5 5 2.12 0.7
1 -5 -5 14.97 1.14
1 -5 -5 17.51 1.12
1 -5 -5 14.77 0.75
-1 5 5 16.02 1.23
-1 5 5 15.97 1.24
-1 5 5 20.29 0.97
0 -5 -5 45.18 1.9
0 -5 -5 42.83 1.36
0 5 5 40.06 1.82
0 5 5 44.92 1.71
0 5 5 45.29 1.9
-1 -5 -5 -0.11 0.38
-1 -5 -5 0.29 0.4
1 5 5 -0.01 0.4
1 5 5 0.2 0.39
1 5 5 0.3 0.3
-2 -5 -5 -0.18 0.36
-2 -5 -5 0.25 0.33
-2 -5 -5 -0.14 0.37
2 5 5 0.43 0.41
2 5 5 -0.08 0.38
2 5 5 -0.15 0.3
-3 -5 -5 16.43 1.06
-3 -5 -5 17.01 1.04
-3 -5 -5 17.01 1
3 5 5 18.92 1.07
3 5 5 16.11 0.97
3 5 5 17.92 0.66
3 5 5 16.72 1.09
3 5 5 17.73 0.9
-4 -5 -5 55.32 2.14
-4 -5 -5 60.64 2.2
-4 -5 -5 56.07 2.19
4 5 5 57.48 2.2
4 5 5 56.68 1.86
4 5 5 54.3 1.99
4 5 5 57.57 2.19
-5 -5 -5 13.57 1.08
-5 -5 -5 14.97 1.07
5 5 5 15.02 1.15
5 5 5 14.82 0.84
5 5 5 12.01 0.88
5 5 5 13.33 1.1
-6 -5 -5 13.58 1.25
-6 -5 -5 14.82 1.23
-6 -5 -5 14.86 1.28
6 5 5 12.86 1.35
6 5 5 17.35 1.32
6 5 5 15.5 1.01
6 5 5 14.76 0.94
-7 -5 -5 96.6 3.62
-7 -5 -5 100.22 3.73
-7 -5 -5 98.87 3.33
-7 -5 -5 98.47 3.75
7 5 5 99.92 3.46
7 5 5 105.14 3.78
7 5 5 100.62 3.3
-8 -5 -5 13.41 1.54
-8 -5 -5 11.42 1.36
-8 -5 -5 17.92 1.45
8 5 5 13.63 1.39
8 5 5 14.71 1.78
8 5 5 16.93 1.72
-9 -5 -5 3.15 1.28
-9 -5 -5 1.99 1.15
9 5 5 4.53 1
9 5 5 2.36 1.24
6 -6 -5 2.93 1.11
6 -6 -5 1.34 1.56
6 -6 -5 3.57 1.71
-6 6 5 3.81 1.73
-6 6 5 3.22 1.45
5 -6 -5 8.82 1.57
5 -6 -5 11.17 1.61
5 -6 -5 10.55 1.12
-5 6 5 9.97 1.55
-5 6 5 10.31 1.67
4 -6 -5 7.47 1.26
4 -6 -5 6.32 0.81
4 -6 -5 5.04 1.21
-4 6 5 4.09 1.18
-4 6 5 5.92 1.25
3 -6 -5 7.49 0.87
-3 6 5 8.33 1.19
-3 6 5 8.08 1.11
2 -6 -5 1.18 0.72
2 -6 -5 0.77 0.37
2 -6 -5 1.47 0.72
-2 6 5 2.36 0.83
1 -6 -5 17.46 1.33
1 -6 -5 14.98 1.33
1 -6 -5 16.19 0.8
-1 6 5 14.89 0.99
-1 6 5 15.09 1.29
-1 6 5 18.1 1.39
0 6 5 7.3 0.69
0 6 5 5.59 0.81
0 6 5 5.42 0.79
-1 -6 -5 2.8 0.61
1 6 5 1.89 0.42
1 6 5 2.22 0.61
1 6 5 2.61 0.61
-2 -6 -5 1.29 0.52
-2 -6 -5 1.65 0.44
2 6 5 0.75 0.51
2 6 5 2.1 0.57
2 6 5 1.32 0.43
-3 -6 -5 98.12 3.48
-3 -6 -5 102.87 3.33
3 6 5 101.6 3.51
3 6 5 100.04 2.87
3 6 5 103.5 3.51
3 6 5 100.88 3.34
-4 -6 -5 10.53 1.05
-4 -6 -5 9.56 0.88
4 6 5 9.97 0.77
4 6 5 10.87 0.58
4 6 5 9.92 1.06
4 6 5 10.55 1.09
-5 -6 -5 1.82 0.59
-5 -6 -5 2.37 0.65
-5 -6 -5 2.64 0.67
5 6 5 2.23 0.67
5 6 5 1.98 0.63
5 6 5 2 0.51
5 6 5 1.44 0.34
-6 -6 -5 0.23 0.66
-6 -6 -5 -0.7 0.55
6 6 5 0.6 0.64
6 6 5 0.85 0.41
6 6 5 0.6 0.45
6 6 5 0.3 0.66
-7 -6 -5 7.93 1.08
-7 -6 -5 6.93 1.08
-7 -6 -5 5.57 0.94
7 6 5 6.92 0.79
7 6 5 8.26 1.08
-8 -6 -5 -0.43 0.85
-8 -6 -5 -0.11 1.08
-8 -6 -5 -1.81 0.86
8 6 5 0.24 0.8
8 6 5 -1.15 0.96
-9 -6 -5 4.07 1.26
-9 -6 -5 3.72 1.2
9 6 5 3.48 0.99
9 6 5 2.37 1.33
9 6 5 2.7 1.41
5 -7 -5 4.08 1.51
5 -7 -5 4.34 0.98
5 -7 -5 2.53 1.42
-5 7 5 1.19 1.48
-5 7 5 4.68 1.45
4 -7 -5 2.54 1.18
4 -7 -5 0.9 0.69
4 -7 -5 3.68 1.26
-4 7 5 2.97 1.19
-4 7 5 0.16 1.16
3 -7 -5 0.8 0.93
3 -7 -5 1.85 1
-3 7 5 -0.1 0.9
-3 7 5 1.8 1.05
2 -7 -5 3.22 0.5
-2 7 5 3 0.92
-2 7 5 1.1 0.87
1 -7 -5 49.53 2.37
1 -7 -5 48.56 1.7
1 -7 -5 50.31 2.42
-1 7 5 50.09 2.02
-1 7 5 42.69 3.47
0 -7 -5 1.05 0.68
0 7 5 1.37 0.75
0 7 5 1.36 0.51
-1 -7 -5 95.54 3.58
-1 -7 -5 98.04 3.56
1 7 5 96.81 3.55
1 7 5 102.61 3.26
1 7 5 92.5 3.56
-2 -7 -5 1.13 0.61
-2 -7 -5 1.77 0.68
2 7 5 1.77 0.69
2 7 5 2.01 0.69
2 7 5 1.91 0.47
-3 -7 -5 71.72 2.81
-3 -7 -5 70.56 2.52
-3 -7 -5 68.86 2.81
3 7 5 71.04 2.83
3 7 5 70.27 2.83
3 7 5 71.81 2.53
-4 -7 -5 0.38 0.62
-4 -7 -5 0.8 0.48
-4 -7 -5 0.85 0.62
4 7 5 0.12 0.61
4 7 5 0.05 0.2
4 7 5 -0.53 0.99
4 7 5 0.29 0.42
-5 -7 -5 1.24 0.73
-5 -7 -5 0.6 0.52
5 7 5 0.6 0.46
5 7 5 0.4 0.3
5 7 5 0.87 0.69
-6 -7 -5 0.1 0.75
-6 -7 -5 0.21 0.78
6 7 5 1.61 0.55
6 7 5 0.9 0.42
-7 -7 -5 4.87 1.08
-7 -7 -5 3.8 1.01
-7 -7 -5 3.57 1.1
7 7 5 3.51 0.67
7 7 5 4.5 1.08
-8 -7 -5 12.28 1.5
-8 -7 -5 13.68 1.99
-8 -7 -5 12.42 1.4
8 7 5 15.57 1.71
8 7 5 12.99 1.56
8 7 5 16.93 1.18
8 7 5 13.58 1.65
4 -8 -5 4.5 0.89
4 -8 -5 3.63 1.43
-4 8 5 5.68 1.35
-4 8 5 5.48 1.6
3 -8 -5 6.94 1.32
3 -8 -5 4.61 1.29
-3 8 5 5.82 1.31
-3 8 5 4.2 1.4
2 -8 -5 84.02 2.94
2 -8 -5 89.92 3.79
2 -8 -5 88.62 3.74
-2 8 5 86.26 3.24
-2 8 5 91.94 3.81
-2 8 5 84.69 3.8
1 -8 -5 2.22 0.95
1 -8 -5 3.52 0.99
-1 8 5 3.7 1.02
-1 8 5 3.48 0.66
-1 8 5 4.34 1.04
0 -8 -5 0.03 0.76
0 -8 -5 1.59 1.12
0 8 5 1.1 0.53
0 8 5 0.2 0.8
0 8 5 1.23 0.75
1 8 5 10.52 0.82
-2 -8 -5 0.1 0.71
-2 -8 -5 0.07 0.67
2 8 5 -0.32 0.72
-3 -8 -5 1.75 0.9
-3 -8 -5 2.27 0.81
3 8 5 -1 0.83
-4 -8 -5 0.23 0.72
-4 -8 -5 0.41 0.51
-4 -8 -5 0.42 0.76
4 8 5 0.86 0.49
-5 -8 -5 0.36 0.58
-5 -8 -5 0.27 0.84
-5 -8 -5 -0.75 0.74
5 8 5 0.63 0.5
-6 -8 -5 5.37 0.85
-6 -8 -5 6.51 1.18
-6 -8 -5 5.99 1.09
6 8 5 5.72 0.78
6 8 5 6.89 1.14
-7 -8 -5 1.6 1.02
-7 -8 -5 1.51 1.28
7 8 5 2.29 1.17
7 8 5 0.65 1.05
-8 -8 -5 11.73 1.77
-8 -8 -5 11.78 1.43
-8 -8 -5 18.04 2.24
8 8 5 14.92 1.53
8 8 5 10.83 1.71
8 8 5 17.69 2.29
8 8 5 12.53 1.19
4 -9 -5 2.04 1.63
4 -9 -5 4.39 1.62
4 -9 -5 -0.25 1.63
-4 9 5 -1.22 1.74
-4 9 5 3.9 1.68
3 -9 -5 5.45 1.52
3 -9 -5 6.92 1.5
-3 9 5 6.28 1.58
-3 9 5 9.3 1.77
2 -9 -5 2.57 1.24
2 -9 -5 3.58 1.29
-2 9 5 3.2 1.37
-2 9 5 3.52 0.81
-2 9 5 2.61 1.26
1 -9 -5 0.21 1.03
1 -9 -5 2.06 1.07
-1 9 5 0.57 1.09
-1 9 5 0.24 0.97
-1 9 5 -0.34 0.6
0 -9 -5 16.17 1.89
0 -9 -5 16.53 1.96
0 9 5 16.74 2.02
0 9 5 18.43 2.41
0 9 5 19.49 1.39
-1 -9 -5 2.07 0.97
-1 -9 -5 2.28 1.03
1 9 5 2.6 0.62
1 9 5 1.61 1
1 9 5 2.73 1.01
-2 -9 -5 0.02 0.81
2 9 5 0.8 0.92
2 9 5 1.61 0.93
2 9 5 1.71 0.55
-3 -9 -5 2.52 0.95
-3 -9 -5 3.39 1.23
3 9 5 4.72 1.1
3 9 5 6.6 1.21
-4 -9 -5 4.22 0.75
-4 -9 -5 2.85 0.98
4 9 5 5.67 1.19
-5 -9 -5 29.36 1.69
-5 -9 -5 27.72 2.18
-5 -9 -5 29.29 2.11
5 9 5 27.97 2.2
5 9 5 23.62 2.29
5 9 5 31.07 1.51
-6 -9 -5 7.35 1.38
-6 -9 -5 7.19 0.93
-6 -9 -5 7.85 1.31
6 9 5 10.4 1.07
6 9 5 8.09 1.44
-7 -9 -5 3.87 1.44
-7 -9 -5 1.85 1.25
7 9 5 3.08 1.44
7 9 5 4.41 0.76
7 9 5 0.48 1.35
2 -10 -5 0.21 1.4
2 -10 -5 -1.81 1.38
-2 10 5 1.92 1.6
-2 10 5 0.92 1.37
-2 10 5 1.32 0.91
1 -10 -5 42.37 3
1 -10 -5 47.89 3.03
-1 10 5 42.87 2.94
-1 10 5 49.22 3.19
-1 10 5 50.59 2.4
0 -10 -5 17.58 2.26
0 10 5 18.5 2.41
0 10 5 20.73 2.38
0 10 5 21.47 1.53
-1 -10 -5 1.48 1.22
-1 -10 -5 0.8 1.05
1 10 5 2.37 0.76
1 10 5 0.93 1.22
1 10 5 1.97 1.23
-2 -10 -5 2.4 1.15
-2 -10 -5 2.81 1.16
2 10 5 3.31 0.77
2 10 5 1.65 1.2
2 10 5 4.42 1.32
-3 -10 -5 4.84 1.22
-3 -10 -5 4.48 1.25
3 10 5 6.06 1.39
3 10 5 3.78 1.29
-4 -10 -5 3.94 1.28
-4 -10 -5 1.89 1.14
4 10 5 3.3 1.33
4 10 5 2.77 1.27
4 10 5 3.73 0.46
-5 -10 -5 -1.19 1.19
-5 -10 -5 0.43 0.73
-5 -10 -5 0.29 1.12
5 10 5 -0.17 1.23
5 10 5 -2.62 1.22
5 10 5 -0.18 0.58
-6 -10 -5 5.8 1.62
-6 -10 -5 5.66 0.97
-6 -10 -5 4.98 1.44
6 10 5 6.16 0.86
6 10 5 4.38 1.56
6 10 5 6.35 1.64
1 -11 -5 9.28 1.87
1 -11 -5 9.48 1.9
-1 11 5 5.14 1.94
-1 11 5 10.56 1.28
-1 11 5 8.12 1.97
0 -11 -5 8.28 1.66
0 11 5 5.46 1.82
0 11 5 5.39 1.61
0 11 5 7.58 1.04
-1 -11 -5 1.84 1.53
-1 -11 -5 3.1 1.46
1 11 5 1.85 0.83
1 11 5 5.05 1.72
1 11 5 4.01 1.53
-2 -11 -5 1.43 1.44
-2 -11 -5 1.8 1.31
2 11 5 -2.47 1.39
2 11 5 1.02 1.49
2 11 5 0.32 0.74
-3 -11 -5 6.55 1.5
-3 -11 -5 5.07 1.57
3 11 5 5.49 1.64
3 11 5 5.71 1.69
-4 -11 -5 9.64 1.66
-4 -11 -5 6.62 1.72
4 11 5 9.54 1.84
4 11 5 11.54 1.96
-5 -11 -5 -1.03 1.41
-5 -11 -5 1.75 1.63
5 11 5 3.27 1.66
5 11 5 0.44 0.66
5 11 5 -1.09 1.82
5 11 5 -0.26 0.45
2 7 -6 -2 1.19
-2 -7 6 -0.66 1.21
-2 -7 6 1.32 1.32
-2 -7 6 -0.39 0.63
1 7 -6 42.86 2.93
1 7 -6 45.36 2.78
-1 -7 6 43.13 2.76
-1 -7 6 38.51 2.06
0 7 -6 -0.56 1.06
0 7 -6 -1.24 1.09
0 7 -6 -0.07 1.13
0 -7 6 -0.01 1.06
0 -7 6 -0.71 0.66
0 -7 6 2.44 0.99
-1 7 -6 5.6 1.16
-1 7 -6 4.76 1.19
-1 7 -6 7.43 1.36
1 -7 6 4.94 1.02
1 -7 6 4.62 1.17
1 -7 6 5.91 0.94
-2 7 -6 8.46 1.28
-2 7 -6 10.11 1.37
-2 7 -6 10.59 1.54
2 -7 6 9 1.23
2 -7 6 11.22 1.37
-3 7 -6 2.49 1.29
-3 7 -6 4.6 1.14
-3 7 -6 3.17 1.21
-3 7 -6 2.46 0.51
3 -7 6 2.66 0.85
3 -7 6 0.81 1
4 6 -6 1.15 1.36
4 6 -6 -1.49 1.41
-4 -6 6 0.56 0.69
-4 -6 6 -2 1.42
-4 -6 6 1.75 1.52
3 6 -6 19.42 2.08
-3 -6 6 12.05 1.65
-3 -6 6 12.85 1.21
-3 -6 6 17.52 1.8
2 6 -6 -0.44 0.94
2 6 -6 1.76 1.1
-2 -6 6 0.79 0.63
-2 -6 6 -0.89 0.98
1 6 -6 -0.99 0.81
1 6 -6 -1.25 0.91
-1 -6 6 -0.59 0.84
-1 -6 6 -0.28 0.6
-1 -6 6 -0.66 0.85
0 6 -6 -0.57 0.78
0 6 -6 -0.15 0.83
0 -6 6 -0.05 0.76
0 -6 6 0.76 0.83
0 -6 6 0.73 0.6
-1 6 -6 3.12 0.89
-1 6 -6 4.24 0.94
-1 6 -6 4.43 1.04
1 -6 6 4.12 0.83
1 -6 6 4.47 0.94
1 -6 6 3.41 0.75
-2 6 -6 3.56 0.91
-2 6 -6 0.14 0.83
-2 6 -6 1.36 0.25
-2 6 -6 0.01 0.9
2 -6 6 2.09 0.8
2 -6 6 1.7 0.79
2 -6 6 0.93 0.62
-3 6 -6 0.01 0.79
-3 6 -6 0.22 0.45
-3 6 -6 0.3 0.84
-3 6 -6 -0.06 0.93
3 -6 6 1.3 0.78
3 -6 6 -0.02 0.64
-4 6 -6 -0.39 0.88
-4 6 -6 1.77 0.87
-4 6 -6 0.6 1.12
4 -6 6 0.58 0.66
4 -6 6 1.28 0.87
4 -6 6 -0.69 0.8
-5 6 -6 6.6 1.22
-5 6 -6 8.04 1.48
-5 6 -6 8.51 1.23
5 -6 6 8.74 1.15
5 -6 6 6.8 1.15
5 -6 6 7.01 1.02
5 5 -6 39.58 3.06
5 5 -6 35.42 3.02
-5 -5 6 34.66 3.51
-5 -5 6 37.07 1.8
-5 -5 6 32.57 1.31
-5 -5 6 41.53 3.16
4 5 -6 2.21 1.28
4 5 -6 2.28 1.23
-4 -5 6 2.95 0.68
-4 -5 6 0.87 1.21
-4 -5 6 2.18 1.22
3 5 -6 2.23 1.03
3 5 -6 3.1 1.11
-3 -5 6 0.64 0.93
-3 -5 6 0.55 0.55
2 5 -6 9.35 1.2
2 5 -6 8.92 1.2
-2 -5 6 7.23 0.85
-2 -5 6 9.46 1.2
-2 -5 6 11.33 1.48
1 5 -6 2.17 0.83
1 5 -6 2.61 0.89
1 5 -6 1.39 0.95
-1 -5 6 3.78 0.84
-1 -5 6 3.5 0.68
0 5 -6 55.23 2.48
0 5 -6 55.93 2.48
0 -5 6 54.15 2.25
0 -5 6 54.24 2.69
0 -5 6 54.73 2.37
-1 5 -6 1.48 0.68
-1 5 -6 0.81 0.84
1 -5 6 1.46 0.64
1 -5 6 0.78 0.58
1 -5 6 1.95 0.68
-2 5 -6 0.93 0.31
-2 5 -6 0.77 0.66
2 -5 6 -0.17 0.57
2 -5 6 1.77 0.6
2 -5 6 1.02 0.62
-3 5 -6 7.07 1.06
-3 5 -6 6.59 0.84
-3 5 -6 5.94 0.86
-3 5 -6 5.39 0.6
3 -5 6 6.93 0.85
3 -5 6 5.27 0.8
-4 5 -6 3.77 0.77
-4 5 -6 1.7 0.94
-4 5 -6 1.19 0.72
4 -5 6 2.09 0.7
4 -5 6 1.58 0.65
-5 5 -6 8.93 1.07
-5 5 -6 11.27 1.46
-5 5 -6 8.76 1.31
5 -5 6 10.45 1.22
5 -5 6 10.32 1.38
5 -5 6 8.94 1.01
-6 5 -6 -0.82 1.14
-6 5 -6 1.04 0.93
-6 5 -6 1.5 0.93
6 -5 6 0.49 0.88
6 -5 6 -0.19 0.64
6 -5 6 1.02 0.91
5 4 -6 -1.28 1.24
5 4 -6 2.03 1.33
-5 -4 6 -0.21 0.43
-5 -4 6 0.05 1.26
-5 -4 6 -0.47 0.55
-5 -4 6 0.16 1.25
4 4 -6 1.21 1.16
4 4 -6 0.48 0.98
-4 -4 6 1.25 0.95
-4 -4 6 0.71 0.53
-4 -4 6 0.34 0.34
-4 -4 6 2.85 1.08
3 4 -6 9.29 1.2
3 4 -6 11.51 1.53
-3 -4 6 7.62 1.1
-3 -4 6 9.19 0.52
-3 -4 6 7.98 0.93
2 4 -6 24.38 1.68
2 4 -6 25.49 1.75
-2 -4 6 23.53 1.3
-2 -4 6 23.56 1.69
1 4 -6 13.93 1.37
1 4 -6 14.24 1.3
1 4 -6 15.93 0.91
-1 -4 6 15.07 1.14
-1 -4 6 13.41 1.33
-1 -4 6 16.23 1.32
0 4 -6 68.75 2.65
0 4 -6 70.7 2.7
0 -4 6 67.17 2.61
0 -4 6 72.32 2.69
0 -4 6 66.63 2.54
-1 4 -6 0.36 0.62
-1 4 -6 -0.61 0.47
-1 4 -6 -0.69 0.49
1 -4 6 0.14 0.48
1 -4 6 0.42 0.47
1 -4 6 0.17 0.48
-2 4 -6 1.31 0.33
-2 4 -6 1.58 0.52
-2 4 -6 1.6 0.54
2 -4 6 1.19 0.5
2 -4 6 1.92 0.55
2 -4 6 2.17 0.55
-3 4 -6 3.83 0.66
-3 4 -6 4.34 0.54
-3 4 -6 5.07 0.68
3 -4 6 4.34 0.62
3 -4 6 5.94 0.73
-4 4 -6 12.49 1.14
-4 4 -6 13.91 1.15
4 -4 6 11.83 1.11
4 -4 6 14.51 1.12
4 -4 6 12.32 1.09
-5 4 -6 7.98 0.9
-5 4 -6 6.53 1.06
-5 4 -6 8.46 1.11
5 -4 6 7.47 0.86
5 -4 6 7.46 0.81
5 -4 6 6.88 0.81
-6 4 -6 13.57 1.38
-6 4 -6 11.41 1.42
-6 4 -6 10.84 1.4
6 -4 6 11.68 1.38
6 -4 6 10.82 1.1
-7 4 -6 -1.06 0.79
-7 4 -6 -1.14 1.14
-7 4 -6 -0.34 0.93
7 -4 6 0.15 0.65
7 -4 6 -1.57 0.84
7 -4 6 0.91 0.89
6 3 -6 1.66 1.44
6 3 -6 3.74 1.53
-6 -3 6 2.5 1.59
-6 -3 6 1.21 1.64
-6 -3 6 2.11 0.62
5 3 -6 3 1.24
5 3 -6 -0.57 1.05
-5 -3 6 2.02 1.17
-5 -3 6 0.78 0.52
4 3 -6 11.87 1.36
4 3 -6 7.51 1.23
-4 -3 6 11.21 0.96
-4 -3 6 11.29 1.51
3 3 -6 35.55 2.05
3 3 -6 36.5 2.09
-3 -3 6 33.77 1.34
-3 -3 6 35.12 2.01
-3 -3 6 37.85 1.55
2 3 -6 93.66 3.36
2 3 -6 84.56 3.32
-2 -3 6 89.27 3.36
-2 -3 6 87.85 2.71
-2 -3 6 88.99 3.02
-2 -3 6 88.64 3.28
1 3 -6 0.47 0.54
1 3 -6 0.43 0.56
1 3 -6 0.57 0.37
-1 -3 6 0.9 0.56
-1 -3 6 0.56 0.44
-1 -3 6 0.18 0.5
0 3 -6 12.18 1.01
0 -3 6 13.75 1.04
0 -3 6 13.13 0.95
0 -3 6 12.09 0.97
-1 3 -6 1.26 0.25
-1 3 -6 0.26 0.43
1 -3 6 1.4 0.49
1 -3 6 0.49 0.41
1 -3 6 0.23 0.4
-2 3 -6 31 1.75
-2 3 -6 34.42 1.31
-2 3 -6 35.78 1.43
-2 3 -6 34.24 1.46
2 -3 6 33.35 1.41
2 -3 6 32.99 1.53
2 -3 6 34.55 1.41
-3 3 -6 16.44 1.03
-3 3 -6 16.01 0.96
3 -3 6 16.54 1.08
-4 3 -6 3.74 0.58
4 -3 6 3.63 0.62
4 -3 6 3.9 0.52
-5 3 -6 28.39 1.42
-5 3 -6 27.92 1.47
5 -3 6 30.28 1.48
5 -3 6 25.59 1.47
5 -3 6 26.25 1.36
-6 3 -6 0.07 0.58
6 -3 6 0.29 0.58
6 -3 6 1 0.54
6 -3 6 0.34 0.56
-7 3 -6 15 1.41
-7 3 -6 14.94 1.55
-7 3 -6 18.12 1.9
7 -3 6 15.02 1.8
7 -3 6 17.44 1.29
7 -3 6 16.13 1.51
-8 3 -6 9.98 1.16
-8 3 -6 11.09 1.35
8 -3 6 13.33 1.8
8 -3 6 12.6 1.6
8 -3 6 10.56 1.29
8 -3 6 14.54 1.28
6 2 -6 -0.06 1.27
6 2 -6 -0.06 1.31
-6 -2 6 2.12 1.39
-6 -2 6 -0.89 1.36
5 2 -6 1.13 1.04
5 2 -6 -0.54 0.97
-5 -2 6 0.23 1.04
-5 -2 6 1.68 1.13
4 2 -6 59.09 2.78
4 2 -6 58.32 2.82
-4 -2 6 61.04 2.15
3 2 -6 1.46 1.12
3 2 -6 1.88 0.76
-3 -2 6 2.1 0.73
-3 -2 6 2.21 0.75
-3 -2 6 1.92 0.39
-3 -2 6 2.11 0.49
2 2 -6 76.6 2.89
2 2 -6 76.38 2.9
-2 -2 6 76.62 2.88
-2 -2 6 73.76 2.59
-2 -2 6 78.07 2.46
-2 -2 6 76.5 2.87
1 2 -6 4.89 0.65
-1 -2 6 4.93 0.67
-1 -2 6 3.68 0.54
-1 -2 6 4.96 0.65
-1 -2 6 4.65 0.49
0 2 -6 41.29 1.52
0 2 -6 42.22 1.7
0 2 -6 44.17 1.73
0 -2 6 42.13 1.69
0 -2 6 41.97 1.68
0 -2 6 43.29 1.7
-1 2 -6 15.41 0.9
-1 2 -6 15.54 0.75
-1 2 -6 14.18 0.85
1 -2 6 16.67 0.85
1 -2 6 15.33 0.97
1 -2 6 14.56 0.84
-2 2 -6 26.17 1.41
-2 2 -6 23.62 1.04
-2 2 -6 22.35 1.01
2 -2 6 24.34 1.2
2 -2 6 23.37 0.99
-3 2 -6 3.59 0.4
-3 2 -6 3.36 0.41
-3 2 -6 4.13 0.51
-3 2 -6 2.75 0.65
3 -2 6 3.57 0.38
3 -2 6 4.44 0.6
3 -2 6 4.47 0.47
-4 2 -6 1.98 0.64
-4 2 -6 2.69 0.78
-4 2 -6 2.49 0.38
4 -2 6 2.36 0.36
4 -2 6 1.78 0.37
4 -2 6 2.8 0.56
-5 2 -6 9.41 0.87
5 -2 6 9.69 0.93
5 -2 6 8.69 0.78
-6 2 -6 45.63 1.96
-6 2 -6 47.83 1.93
6 -2 6 46.65 2.38
6 -2 6 49.01 1.97
6 -2 6 47.75 1.91
6 -2 6 49.34 2
-7 2 -6 4.12 0.82
-7 2 -6 5.07 0.8
7 -2 6 5.48 0.72
7 -2 6 4.05 0.76
7 -2 6 5.89 0.8
7 -2 6 4.99 0.96
-8 2 -6 -0.69 0.77
-8 2 -6 1.14 0.86
8 -2 6 -0.31 0.79
8 -2 6 -1.74 0.86
8 -2 6 -0.25 0.56
8 -2 6 1.41 0.83
6 1 -6 0.6 1.26
6 1 -6 0.23 1.21
-6 -1 6 1.83 1.41
-6 -1 6 0.52 1.28
5 1 -6 -0.7 0.91
5 1 -6 0.46 1.02
-5 -1 6 0.72 1.26
-5 -1 6 -0.67 1
4 1 -6 0.71 0.78
4 1 -6 0.29 0.76
-4 -1 6 -0.01 0.37
3 1 -6 0.41 0.64
3 1 -6 0.53 0.63
-3 -1 6 1.12 0.2
-3 -1 6 0.15 0.6
2 1 -6 7.8 1
-2 -1 6 6.31 0.8
-2 -1 6 7.66 0.62
-2 -1 6 7.02 0.45
-2 -1 6 8.15 0.97
-2 -1 6 6.72 0.74
1 1 -6 25.48 1.32
1 1 -6 26.67 1.32
-1 -1 6 26.83 1.33
-1 -1 6 27.68 0.99
-1 -1 6 27.3 1.23
-1 -1 6 27.53 1.33
-1 -1 6 27.24 1.1
0 1 -6 0.18 0.31
0 1 -6 0.06 0.33
0 1 -6 0.07 0.31
0 -1 6 -0.03 0.3
0 -1 6 0.03 0.3
0 -1 6 -0.01 0.33
0 -1 6 -0.28 0.24
0 -1 6 0.05 0.23
-1 1 -6 6.29 0.52
-1 1 -6 6.29 0.56
-1 1 -6 5.28 0.51
1 -1 6 6.06 0.51
1 -1 6 5.98 0.66
-2 1 -6 121.22 3.56
-2 1 -6 120.99 3.99
-2 1 -6 121.52 3.56
-2 1 -6 121.37 3.74
2 -1 6 121.41 3.52
2 -1 6 122.9 3.52
2 -1 6 123.01 3.85
-3 1 -6 22.54 0.8
-3 1 -6 22.23 1.08
-3 1 -6 22.13 1.3
-3 1 -6 21.92 0.81
3 -1 6 22.31 1.13
3 -1 6 22.73 0.72
3 -1 6 21.87 0.72
-4 1 -6 14.17 0.66
-4 1 -6 13.46 0.67
-4 1 -6 14.53 1.13
4 -1 6 13.03 0.6
4 -1 6 12.61 0.92
4 -1 6 13.65 0.61
-5 1 -6 5.24 0.92
-5 1 -6 6.57 0.62
-5 1 -6 6.36 0.79
5 -1 6 5.45 0.67
5 -1 6 6.5 0.59
5 -1 6 5.92 0.63
5 -1 6 5.99 0.8
-6 1 -6 62.06 2.31
-6 1 -6 70.49 2.26
-6 1 -6 65.56 2.7
6 -1 6 64.99 2.36
6 -1 6 58.37 2.68
6 -1 6 59.82 2.23
-7 1 -6 25.8 1.52
-7 1 -6 26.76 1.51
7 -1 6 26.39 1.48
7 -1 6 23.92 1.45
7 -1 6 29.31 1.41
7 -1 6 26.31 1.85
-8 1 -6 -1.04 0.66
-8 1 -6 0.97 0.77
8 -1 6 -0.69 0.7
8 -1 6 0.31 0.77
8 -1 6 1.22 0.9
-9 1 -6 0.29 1.03
-9 1 -6 0.75 0.96
9 -1 6 0.31 1.01
9 -1 6 0.71 1.17
9 -1 6 0.32 1.01
7 0 -6 -0.11 1.62
7 0 -6 0.33 1.58
-7 0 6 4.8 1.95
-7 0 6 1.48 1.68
6 0 -6 16.09 2.21
6 0 -6 19.43 2.2
-6 0 6 16.91 1.89
-6 0 6 16.7 2.25
5 0 -6 2.24 1.01
5 0 -6 2.5 1.04
-5 0 6 1.28 1.06
-5 0 6 2.57 1.11
4 0 -6 27.64 1.9
4 0 -6 28.88 1.86
3 0 -6 2.61 0.7
3 0 -6 1.82 0.7
-3 0 6 2.95 0.42
-3 0 6 2.97 0.7
-3 0 6 2.87 0.75
-3 0 6 2.54 0.33
2 0 -6 63.16 2.47
-2 0 6 64.88 2.03
-2 0 6 65.38 2.51
-2 0 6 66.03 2.23
-2 0 6 63.15 2.18
-2 0 6 65.82 2.49
1 0 -6 68.65 2.48
1 0 -6 72.22 2.35
1 0 -6 73.76 2.54
-1 0 6 69.14 2.38
-1 0 6 73.12 2.53
-1 0 6 68.93 2.21
-1 0 6 70.13 2.35
-1 0 6 75.39 2.52
0 0 -6 24.37 1.1
0 0 -6 25.58 1.11
0 0 -6 24.64 1.12
0 0 6 26.24 1.09
0 0 6 25.79 1.1
0 0 6 23.61 1.15
0 0 6 25.85 1
0 0 6 28.04 1.13
-1 0 -6 81.84 2.45
-1 0 -6 68.95 2.5
-1 0 -6 78.26 2.55
-1 0 -6 83.48 2.65
-1 0 -6 83.87 2.61
1 0 6 81.98 2.53
1 0 6 80.35 2.57
1 0 6 79.92 2.42
1 0 6 81.09 2.42
-2 0 -6 118.42 3.71
-2 0 -6 118.12 3.57
-2 0 -6 112.76 3.54
-2 0 -6 114.51 3.19
-2 0 -6 111.35 3.18
2 0 6 112.39 3.5
2 0 6 110.84 3.59
-3 0 -6 138.74 4.34
-3 0 -6 143.3 4.46
-3 0 -6 141.5 4.29
3 0 6 136.2 4.27
3 0 6 140.3 4.33
-4 0 -6 36.02 1.61
-4 0 -6 33.15 1.42
-4 0 -6 33.86 1.09
-4 0 -6 34.56 1.1
4 0 6 34.05 1.44
-5 0 -6 3.21 0.61
-5 0 -6 2.95 0.62
-5 0 -6 3.09 0.39
-5 0 -6 3.86 0.48
5 0 6 3.64 0.54
5 0 6 3.84 0.59
5 0 6 3.93 0.46
5 0 6 3.64 0.49
-6 0 -6 1.06 0.45
-6 0 -6 0.95 0.6
6 0 6 0.91 0.61
6 0 6 1.32 0.41
6 0 6 1.41 0.47
-7 0 -6 21.08 1.33
7 0 6 20.81 1.29
7 0 6 20.2 1.32
7 0 6 21.6 1.58
-8 0 -6 6.75 0.95
-8 0 -6 6.44 0.94
8 0 6 5.23 1
8 0 6 5.72 0.9
-9 0 -6 8.63 1.24
9 0 6 9.26 1.32
9 0 6 6.54 1.16
9 0 6 7.12 1.16
7 -1 -6 11.73 1.89
7 -1 -6 8.05 1.87
-7 1 6 10.08 1.97
-7 1 6 9.63 1.92
6 -1 -6 2.55 1.22
6 -1 -6 3.25 1.3
-6 1 6 3.07 1.41
-6 1 6 4.08 1.35
5 -1 -6 56.59 2.88
5 -1 -6 59.31 2.99
-5 1 6 56.31 2.97
-5 1 6 58.73 2.91
4 -1 -6 14.72 2.21
4 -1 -6 15.98 1.6
3 -1 -6 -0.38 0.58
3 -1 -6 -0.04 0.32
3 -1 -6 0.18 0.56
-3 1 6 0.03 0.58
-3 1 6 0.1 0.57
2 -1 -6 16.63 0.86
2 -1 -6 16.77 1.17
-2 1 6 17.01 1.22
-2 1 6 17.45 1.21
1 -1 -6 180.9 5.55
1 -1 -6 181.07 5.58
1 -1 -6 184.63 5.37
-1 1 6 179.19 5.3
-1 1 6 181.98 5.45
-1 1 6 185.64 5.56
-1 1 6 182.07 5.56
-1 1 6 182.49 5.39
0 -1 -6 25.59 1.12
0 -1 -6 25.29 1.1
0 -1 -6 26.37 1.11
0 1 6 25.64 1.1
0 1 6 26.22 1.12
0 1 6 25.79 1.11
0 1 6 25.65 1.03
0 1 6 25.68 1.1
-1 -1 -6 1.53 0.35
-1 -1 -6 2.06 0.35
-1 -1 -6 1.67 0.25
1 1 6 1.43 0.38
1 1 6 1.57 0.25
1 1 6 1.55 0.33
-2 -1 -6 97.83 3.16
-2 -1 -6 101.94 3.14
-2 -1 -6 102.94 3.1
2 1 6 94.68 3.05
2 1 6 92.26 3.15
-3 -1 -6 20.76 1.04
-3 -1 -6 20.37 1.05
-3 -1 -6 19.87 1.02
3 1 6 19.17 0.97
-4 -1 -6 0.18 0.14
-4 -1 -6 0.14 0.36
-4 -1 -6 0.45 0.38
-4 -1 -6 0.59 0.44
4 1 6 0.25 0.35
4 1 6 -0.01 0.35
4 1 6 -0.37 0.32
-5 -1 -6 13.6 0.75
-5 -1 -6 13.69 0.73
-5 -1 -6 14.55 1.08
-5 -1 -6 13.63 0.93
5 1 6 13.12 0.71
5 1 6 14.19 0.69
-6 -1 -6 0.18 0.53
-6 -1 -6 -0.15 0.39
6 1 6 0.02 0.36
6 1 6 -0.99 0.44
-7 -1 -6 40.47 1.82
-7 -1 -6 43.84 1.8
-7 -1 -6 40.21 1.83
7 1 6 39.8 2.09
7 1 6 40.72 1.79
7 1 6 40.07 1.8
-8 -1 -6 24.23 1.65
-8 -1 -6 23.99 1.71
8 1 6 26.63 1.79
8 1 6 24.02 1.64
-9 -1 -6 0.65 0.92
-9 -1 -6 0.86 0.97
9 1 6 -1.5 0.9
9 1 6 0.72 0.94
9 1 6 0.38 0.89
7 -2 -6 0.28 1.58
7 -2 -6 -2.9 1.62
-7 2 6 1.75 1.79
-7 2 6 2.05 1.61
6 -2 -6 1.94 1.28
6 -2 -6 1.42 1.18
-6 2 6 -0.68 1.29
-6 2 6 -2.75 1.21
5 -2 -6 103.93 4.25
5 -2 -6 109.49 4.27
-5 2 6 101.2 4.25
-5 2 6 109.57 4.28
4 -2 -6 46.41 2.43
4 -2 -6 48.77 1.69
-4 2 6 57.13 2.45
3 -2 -6 0.11 0.34
3 -2 -6 -0.23 0.59
3 -2 -6 0.61 0.59
-3 2 6 0 0.55
-3 2 6 0.94 0.65
2 -2 -6 9.92 0.99
2 -2 -6 9.51 0.71
-2 2 6 9.44 1
-2 2 6 10.76 1.02
1 -2 -6 10.91 0.87
1 -2 -6 9.4 0.82
1 -2 -6 10.87 0.71
-1 2 6 11.27 0.77
-1 2 6 11.2 0.88
-1 2 6 10.76 0.9
0 -2 -6 91.05 2.96
0 -2 -6 93.97 3
0 -2 -6 94.25 2.93
0 2 6 93.19 2.99
0 2 6 91.06 2.88
0 2 6 96.25 2.98
0 2 6 89.68 2.96
-1 -2 -6 92.26 3.01
-1 -2 -6 94.47 2.89
-1 -2 -6 93.21 2.98
-1 -2 -6 99.27 2.91
1 2 6 95.09 2.96
1 2 6 91.74 2.87
1 2 6 94 3.04
-2 -2 -6 4.78 0.53
-2 -2 -6 4.87 0.36
-2 -2 -6 5.05 0.57
-2 -2 -6 5.02 0.6
-2 -2 -6 4.7 0.35
2 2 6 4.78 0.33
2 2 6 5.1 0.33
2 2 6 3.84 0.48
2 2 6 4.88 0.53
-3 -2 -6 144.9 4.34
-3 -2 -6 143.97 4.32
-3 -2 -6 143.69 4.04
-3 -2 -6 140.31 4.04
-3 -2 -6 145.03 4.44
3 2 6 140.29 3.99
3 2 6 139.9 3.99
3 2 6 138.4 4.31
-4 -2 -6 45.81 1.66
-4 -2 -6 43.69 1.77
-4 -2 -6 42.46 1.4
-4 -2 -6 43.55 1.65
-4 -2 -6 42.77 1.41
4 2 6 39.9 1.62
4 2 6 43.95 1.71
4 2 6 42.37 1.38
4 2 6 41.98 1.37
-5 -2 -6 24.78 1.08
-5 -2 -6 24.01 1.04
-5 -2 -6 26.38 1.26
-5 -2 -6 23.87 1.23
5 2 6 25.26 1.31
5 2 6 22.58 1.18
5 2 6 23.89 1.02
-6 -2 -6 9.32 0.87
-6 -2 -6 7.49 0.81
6 2 6 8.22 0.8
6 2 6 9.44 0.84
-7 -2 -6 1.68 0.63
-7 -2 -6 2.74 0.61
-7 -2 -6 2.39 0.6
7 2 6 3.72 0.66
7 2 6 2.26 0.66
7 2 6 2.86 0.6
-8 -2 -6 41.49 2.07
-8 -2 -6 43.23 2.14
-8 -2 -6 39.03 1.82
8 2 6 46.32 2.14
8 2 6 36.98 2.14
-9 -2 -6 0.7 0.97
-9 -2 -6 0.93 0.9
9 2 6 -1.66 0.88
9 2 6 0.7 0.83
9 2 6 -0.76 0.87
6 -3 -6 -0.74 1.24
6 -3 -6 -0.76 1.21
-6 3 6 0.93 1.31
-6 3 6 -0.89 1.21
5 -3 -6 3.92 1.17
5 -3 -6 5.11 1.17
-5 3 6 4.26 1.21
-5 3 6 7.12 1.43
4 -3 -6 26.39 1.9
4 -3 -6 26.96 1.1
4 -3 -6 27.23 1.9
-4 3 6 26.52 1.91
-4 3 6 23.17 1.81
3 -3 -6 -0.56 0.35
3 -3 -6 0.5 0.63
3 -3 -6 -0.48 0.61
-3 3 6 1.01 0.66
-3 3 6 -0.06 0.61
2 -3 -6 0.51 0.36
2 -3 -6 -0.17 0.49
-2 3 6 0.52 0.53
-2 3 6 0.83 0.56
1 -3 -6 34.71 1.38
1 -3 -6 37.43 1.65
1 -3 -6 37.17 1.62
-1 3 6 36.59 1.47
-1 3 6 32.34 1.59
0 -3 -6 3.59 0.51
0 -3 -6 2.52 0.44
0 -3 -6 3.18 0.48
0 3 6 3.7 0.47
0 3 6 2.57 0.46
0 3 6 3.26 0.5
-1 -3 -6 248.18 7.12
-1 -3 -6 233.1 7.02
-1 -3 -6 246.56 7.06
-1 -3 -6 242.41 7.05
1 3 6 238.47 7.13
1 3 6 241.99 7.03
1 3 6 243.74 7.04
1 3 6 238.66 7.04
-2 -3 -6 150.14 4.56
-2 -3 -6 153.44 4.55
-2 -3 -6 161.51 4.68
-2 -3 -6 150.86 4.72
2 3 6 156 4.66
2 3 6 152.62 4.55
2 3 6 158.19 4.77
-3 -3 -6 20.51 1.02
-3 -3 -6 20.97 0.87
-3 -3 -6 20.39 1.08
-3 -3 -6 19.82 0.91
-3 -3 -6 19.33 0.85
3 3 6 19.12 0.97
3 3 6 20.28 0.86
-4 -3 -6 102.11 3.15
-4 -3 -6 97.19 3.18
-4 -3 -6 99.45 3.07
-4 -3 -6 98.58 3.32
-4 -3 -6 100.43 3.08
4 3 6 98.54 3.2
4 3 6 98.85 3.06
4 3 6 100.91 3.19
-5 -3 -6 0.77 0.33
-5 -3 -6 0.99 0.41
-5 -3 -6 1.48 0.49
-5 -3 -6 1.12 0.37
5 3 6 0.5 0.34
5 3 6 0.3 0.36
5 3 6 0.99 0.36
5 3 6 0.62 0.44
-6 -3 -6 56.28 2.11
-6 -3 -6 54.6 2.12
6 3 6 57.05 2.11
6 3 6 53.82 2.1
6 3 6 58.64 2.13
-7 -3 -6 11.9 1.14
-7 -3 -6 10.42 1.12
-7 -3 -6 9.8 1.08
7 3 6 8.8 1.09
7 3 6 10.58 1.27
7 3 6 11.6 1.1
-8 -3 -6 -0.96 0.69
-8 -3 -6 0.67 0.72
-8 -3 -6 1.31 0.74
8 3 6 0.77 0.69
8 3 6 1.05 0.72
-9 -3 -6 7.97 1.23
-9 -3 -6 12.79 1.74
9 3 6 9.15 1.19
9 3 6 11.72 1.32
9 3 6 12.25 1.38
6 -4 -6 16.99 1.93
6 -4 -6 10.07 1.75
-6 4 6 11.72 1.81
-6 4 6 12.88 1.9
5 -4 -6 2.37 1.14
5 -4 -6 2.42 0.47
5 -4 -6 1.58 1.11
-5 4 6 4.76 1.25
-5 4 6 1.49 1.17
4 -4 -6 89.54 2.92
4 -4 -6 85.07 4.13
4 -4 -6 96.23 3.85
-4 4 6 98.31 3.82
-4 4 6 93.1 3.72
3 -4 -6 11.97 1.35
3 -4 -6 11.41 0.85
3 -4 -6 10.65 1.38
-3 4 6 9.2 1.32
2 -4 -6 -0.34 0.55
2 -4 -6 -0.52 0.5
-2 4 6 0.82 0.61
1 -4 -6 29.52 1.38
1 -4 -6 23.39 1.35
-1 4 6 28.29 1.2
-1 4 6 22.25 1.36
-1 4 6 22.12 1.41
0 -4 -6 2.15 0.49
0 -4 -6 0.72 0.42
0 4 6 1.69 0.44
0 4 6 1.8 0.48
0 4 6 1.57 0.49
-1 -4 -6 810.41 23.39
-1 -4 -6 843.6 23.44
1 4 6 824.75 23.45
1 4 6 853.22 23.42
1 4 6 823.48 23.43
-2 -4 -6 822.91 23.17
-2 -4 -6 790.61 22.92
-2 -4 -6 833.39 23.25
-2 -4 -6 843.5 23.19
2 4 6 844.11 23.19
2 4 6 781.73 23.14
2 4 6 845.59 23.28
2 4 6 832.69 23.16
-3 -4 -6 180.69 5.36
-3 -4 -6 174.55 5.2
-3 -4 -6 169.47 5.18
3 4 6 176.36 5.35
3 4 6 175.44 5.19
3 4 6 167.25 5.21
3 4 6 170.39 5.19
-4 -4 -6 1.24 0.38
-4 -4 -6 1.19 0.45
-4 -4 -6 2.1 0.51
-4 -4 -6 1.36 0.37
4 4 6 1.12 0.38
4 4 6 1.07 0.3
4 4 6 1.41 0.42
4 4 6 1.3 0.39
-5 -4 -6 13.5 1.02
-5 -4 -6 14.22 1.09
-5 -4 -6 15.38 0.93
-5 -4 -6 13.36 0.96
5 4 6 13.59 0.91
5 4 6 13.98 0.97
5 4 6 15.75 0.99
5 4 6 14.71 0.88
-6 -4 -6 7.95 0.95
-6 -4 -6 8.75 0.94
-6 -4 -6 9.2 1.08
6 4 6 8.96 0.85
6 4 6 8 0.87
6 4 6 8.09 0.97
6 4 6 10.6 1.01
-7 -4 -6 19.75 1.46
-7 -4 -6 23.06 1.46
-7 -4 -6 19.69 1.41
7 4 6 19.5 1.27
7 4 6 22.31 1.36
7 4 6 22.02 1.49
7 4 6 19.4 1.47
-8 -4 -6 39.12 2.14
-8 -4 -6 40.1 2.16
-8 -4 -6 38.96 2.15
8 4 6 40.42 2.02
8 4 6 39.73 2.13
-9 -4 -6 0.27 0.99
-9 -4 -6 -0.13 0.94
9 4 6 1.16 0.99
9 4 6 0.27 1.02
9 4 6 -0.76 0.77
6 -5 -6 0.18 1.48
6 -5 -6 0.22 1.52
6 -5 -6 -0.87 0.86
-6 5 6 0.24 1.65
5 -5 -6 1.82 1.19
5 -5 -6 2.4 0.58
5 -5 -6 1.3 1.22
-5 5 6 0.12 1.2
4 -5 -6 3.57 0.64
4 -5 -6 3.53 1.12
4 -5 -6 5.69 1.13
-4 5 6 3.68 1.12
3 -5 -6 6.75 1.05
-3 5 6 6.74 1.06
-3 5 6 6.78 1.1
2 -5 -6 37.49 1.97
2 -5 -6 36.29 1.98
-2 5 6 36.96 1.93
-2 5 6 35.75 1.97
1 -5 -6 -0.11 0.5
-1 5 6 0.48 0.52
-1 5 6 -0.23 0.52
0 -5 -6 0.53 0.49
0 5 6 0.57 0.48
0 5 6 1.72 0.56
-1 -5 -6 2.55 0.54
-1 -5 -6 2.26 0.19
1 5 6 1.82 0.46
1 5 6 1.91 0.53
1 5 6 2.51 0.55
-2 -5 -6 39.29 1.67
-2 -5 -6 38.3 1.63
-2 -5 -6 39.43 1.62
2 5 6 38.08 1.65
2 5 6 38.73 1.63
2 5 6 39.2 1.63
-3 -5 -6 10.73 0.86
-3 -5 -6 11.99 0.91
-3 -5 -6 10.11 0.85
3 5 6 13.29 0.96
3 5 6 11.62 0.8
3 5 6 11.29 0.91
3 5 6 11.91 0.93
-4 -5 -6 12.73 0.98
-4 -5 -6 13.39 1
4 5 6 12 0.93
4 5 6 12.96 0.99
4 5 6 11.91 0.68
4 5 6 12.65 0.87
-5 -5 -6 20.39 1.26
-5 -5 -6 24.73 1.37
5 5 6 22.11 1.16
5 5 6 21.89 1.28
5 5 6 21.47 1.05
5 5 6 21.81 1.3
-6 -5 -6 20.31 1.38
-6 -5 -6 18.98 1.33
-6 -5 -6 17.86 1.59
6 5 6 20.63 1.37
6 5 6 19.07 1.15
6 5 6 21.5 1.15
6 5 6 20.18 1.37
-7 -5 -6 21.23 1.53
-7 -5 -6 22.57 1.58
7 5 6 19.75 1.56
7 5 6 21.22 1.55
7 5 6 24.72 1.33
7 5 6 20.52 1.24
-8 -5 -6 46.76 2.38
-8 -5 -6 42.78 2.37
-8 -5 -6 46.74 2.39
8 5 6 44.54 2.43
8 5 6 45.06 2.34
-9 -5 -6 -0.7 0.99
-9 -5 -6 0.14 1.04
-9 -5 -6 -0.95 1.05
9 5 6 0.41 1.14
9 5 6 0.34 1.1
9 5 6 1.2 0.85
5 -6 -6 18.54 2.39
5 -6 -6 17.88 2
5 -6 -6 18.57 1.72
-5 6 6 20.11 2.31
-5 6 6 15.47 1.98
4 -6 -6 0.29 1.07
4 -6 -6 -0.14 0.56
4 -6 -6 1.49 1.09
-4 6 6 -0.83 1.1
-4 6 6 1.07 1.07
3 -6 -6 0.37 1.12
3 -6 -6 1.43 0.9
-3 6 6 0.68 0.89
-3 6 6 0.28 0.92
2 -6 -6 -0.67 0.31
2 -6 -6 1.14 0.77
2 -6 -6 0.85 0.69
-2 6 6 -1.24 0.68
1 -6 -6 3.21 0.77
1 -6 -6 3.02 0.36
1 -6 -6 2.67 0.76
-1 6 6 1.86 0.7
-1 6 6 3.33 0.79
-1 6 6 3.02 0.58
0 -6 -6 4.31 0.35
0 -6 -6 5.84 0.78
0 -6 -6 3.68 0.71
0 6 6 3.58 0.72
0 6 6 3.65 0.75
-1 -6 -6 2.75 0.63
-1 -6 -6 2.81 0.62
1 6 6 2.31 0.47
1 6 6 2.5 0.6
1 6 6 3.09 0.65
-2 -6 -6 0.96 0.44
-2 -6 -6 -0.55 0.44
2 6 6 0.11 0.44
2 6 6 -0.28 0.46
-3 -6 -6 0.71 0.5
-3 -6 -6 1.24 0.47
3 6 6 0.74 0.52
3 6 6 0.2 0.49
3 6 6 0.92 0.44
-4 -6 -6 18.62 1.16
-4 -6 -6 17.52 1.18
-4 -6 -6 20.19 1.26
4 6 6 18.04 0.76
4 6 6 17.39 1.05
4 6 6 17.04 1.26
4 6 6 17.32 1.29
-5 -6 -6 1.41 0.61
-5 -6 -6 0.72 0.53
-5 -6 -6 1.19 0.62
5 6 6 1.49 0.34
5 6 6 0.33 0.56
5 6 6 1.89 0.55
5 6 6 0.81 0.57
-6 -6 -6 10.79 1.27
-6 -6 -6 11.34 1.21
6 6 6 11.57 1.28
6 6 6 11.24 0.89
6 6 6 9.96 1.28
6 6 6 12.76 1.02
-7 -6 -6 45.98 2.24
-7 -6 -6 44.34 2.29
7 6 6 40.26 1.86
7 6 6 42.6 2.25
7 6 6 43.77 1.88
-8 -6 -6 56.06 2.72
-8 -6 -6 50.31 2.71
-8 -6 -6 53.32 2.62
8 6 6 53.41 2.7
8 6 6 57.71 2.8
8 6 6 53.14 2.15
8 6 6 48.77 2.7
-9 -6 -6 3.32 1.26
-9 -6 -6 3.18 1.13
-9 -6 -6 2.88 1.32
9 6 6 1.12 1.28
9 6 6 2.28 0.99
5 -7 -6 1.69 1.55
5 -7 -6 1.19 0.93
5 -7 -6 3.54 1.57
-5 7 6 -1.34 1.63
-5 7 6 -0.39 1.39
4 -7 -6 12.81 1.69
4 -7 -6 17.66 2.16
4 -7 -6 12.28 1.39
-4 7 6 10.46 1.71
-4 7 6 15.09 1.74
3 -7 -6 2.86 1.08
3 -7 -6 2.02 1.05
-3 7 6 0.47 1.02
-3 7 6 2.6 1.15
2 -7 -6 -0.05 0.39
2 -7 -6 2.18 0.9
-2 7 6 1.49 0.6
-2 7 6 -0.88 0.79
-2 7 6 1 0.9
1 -7 -6 6.06 0.6
1 -7 -6 6.83 1.21
1 -7 -6 5.92 1
-1 7 6 4.91 1.01
-1 7 6 6.16 0.77
0 -7 -6 5.12 0.89
0 7 6 4.76 0.65
0 7 6 2.9 0.82
-1 -7 -6 16.11 1.36
-1 -7 -6 18.52 1.38
1 7 6 16.09 1.39
1 7 6 18.64 1.49
-2 -7 -6 56.91 2.38
-2 -7 -6 56.34 2.37
2 7 6 56.82 2.39
2 7 6 46.02 2.11
2 7 6 59.83 2.46
-3 -7 -6 4.37 0.66
-3 -7 -6 4.54 0.79
-3 -7 -6 5.61 0.82
3 7 6 4.56 0.81
3 7 6 6.63 0.79
3 7 6 4.17 0.76
-4 -7 -6 19.87 1.45
-4 -7 -6 20.2 1.27
-4 -7 -6 20.66 1.4
4 7 6 19.78 0.71
4 7 6 18.12 1.12
4 7 6 19.09 1.41
-5 -7 -6 9.11 1.02
-5 -7 -6 7.63 0.99
5 7 6 7.81 1.01
5 7 6 8.93 0.64
5 7 6 7.66 0.98
5 7 6 8.12 0.84
-6 -7 -6 0 0.67
-6 -7 -6 -0.89 0.71
-6 -7 -6 0.23 0.68
6 7 6 -1.24 0.67
6 7 6 0.44 0.38
-7 -7 -6 11.03 1.31
-7 -7 -6 12.75 1.68
7 7 6 12.37 1.67
7 7 6 10.38 1.28
7 7 6 12.79 1.08
-8 -7 -6 -0.51 1.11
-8 -7 -6 -1.52 0.95
-8 -7 -6 0.02 0.98
8 7 6 -0.94 0.55
8 7 6 -0.25 0.63
8 7 6 -0.37 1.11
4 -8 -6 3.98 1.58
4 -8 -6 4.76 1.47
4 -8 -6 5.09 0.94
-4 8 6 4.31 1.5
-4 8 6 3.93 1.68
3 -8 -6 1.54 1.18
3 -8 -6 0.23 1.13
-3 8 6 0.14 1.23
-3 8 6 1.83 1.15
2 -8 -6 3.8 1.13
2 -8 -6 3.4 1.17
2 -8 -6 3.12 0.55
-2 8 6 2.87 0.76
-2 8 6 3.78 1.19
-2 8 6 5.17 1.2
1 -8 -6 1.9 0.93
1 -8 -6 -0.14 1.24
-1 8 6 -0.15 0.56
-1 8 6 -0.67 0.9
-1 8 6 0.14 0.92
0 -8 -6 14.5 1.52
0 8 6 10.32 1.22
0 8 6 8.86 1.27
0 8 6 11.64 1.16
-1 -8 -6 17.03 1.62
1 8 6 15.17 1.16
-2 -8 -6 81.62 3.39
2 8 6 84.76 3.1
2 8 6 95.22 3.41
-3 -8 -6 6.9 1.01
-3 -8 -6 8.2 0.97
3 8 6 7.5 0.92
3 8 6 6.16 1.02
-4 -8 -6 6.41 0.99
-4 -8 -6 6.64 0.82
-4 -8 -6 5.78 0.98
4 8 6 7.84 1.08
4 8 6 6.9 0.79
-5 -8 -6 0.09 0.81
-5 -8 -6 0.96 0.71
-5 -8 -6 0.36 0.73
5 8 6 -0.37 0.51
5 8 6 0.09 0.26
-6 -8 -6 1.97 0.78
-6 -8 -6 2.56 0.96
-6 -8 -6 3.68 0.99
6 8 6 0.99 0.97
6 8 6 3.6 0.67
6 8 6 2.31 0.45
-7 -8 -6 20.25 1.66
-7 -8 -6 25.6 2.27
-7 -8 -6 25.02 2.08
7 8 6 25.59 1.42
7 8 6 18.48 1.24
7 8 6 26.36 2.31
-8 -8 -6 -0.85 1.08
-8 -8 -6 -2.65 1.08
-8 -8 -6 0.3 1.4
8 8 6 -0.97 0.6
8 8 6 1.89 1.24
8 8 6 -0.06 0.71
8 8 6 -0.01 1.29
3 -9 -6 0.32 1.47
3 -9 -6 2.03 1.44
-3 9 6 3.7 1.02
-3 9 6 5.01 1.62
-3 9 6 4 1.69
2 -9 -6 4.27 1.31
2 -9 -6 4.52 1.32
-2 9 6 0.42 1.29
-2 9 6 3.11 0.9
-2 9 6 2.69 1.39
1 -9 -6 10.01 1.43
1 -9 -6 6.86 1.32
-1 9 6 9.2 1.49
-1 9 6 10.14 1.22
-1 9 6 9.95 1.46
0 -9 -6 1.73 1.04
0 9 6 1.29 0.67
0 9 6 0.79 1.44
0 9 6 -0.68 0.98
-1 -9 -6 1.32 0.92
1 9 6 1.29 0.97
1 9 6 1.73 0.66
1 9 6 2.15 1.01
-2 -9 -6 0.01 0.82
-2 -9 -6 1.54 0.91
2 9 6 2.04 0.95
2 9 6 0.58 0.61
-3 -9 -6 0.03 0.81
-3 -9 -6 -0.34 0.87
3 9 6 -0.45 0.55
3 9 6 -1.91 0.9
-4 -9 -6 -0.67 0.88
-4 -9 -6 0.24 0.71
-4 -9 -6 0.31 0.85
4 9 6 -1.84 0.88
-5 -9 -6 0.09 0.9
-5 -9 -6 -0.15 0.98
-5 -9 -6 -0.36 0.68
5 9 6 -1.39 1.06
5 9 6 0.12 0.53
5 9 6 0.16 0.24
5 9 6 0.35 0.98
-6 -9 -6 2.57 1.05
6 9 6 0.58 0.39
6 9 6 0.05 0.59
6 9 6 -0.77 1.07
6 9 6 1.6 1.13
-7 -9 -6 3.41 1.38
-7 -9 -6 0.01 0.96
-7 -9 -6 2.61 1.19
7 9 6 0.87 0.65
7 9 6 -0.5 1.31
7 9 6 0.18 1.31
2 -10 -6 -2.03 1.36
2 -10 -6 0.85 1.55
-2 10 6 -1.25 1.37
-2 10 6 -0.88 1.61
-2 10 6 0.28 0.91
1 -10 -6 -0.64 1.28
1 -10 -6 0.49 1.29
-1 10 6 0.84 1.35
-1 10 6 1.15 1.43
-1 10 6 -0.11 0.79
0 -10 -6 0.28 1.22
0 10 6 0.43 1.29
0 10 6 0.45 0.74
0 10 6 -0.09 1.25
-1 -10 -6 1.38 1.13
-1 -10 -6 0.8 1.14
1 10 6 1.15 0.72
1 10 6 -1.02 1.11
1 10 6 -0.59 1.18
-2 -10 -6 2.5 1.12
-2 -10 -6 4.53 1.33
2 10 6 3.82 1.31
2 10 6 4.58 1.34
-3 -10 -6 50.27 2.75
-3 -10 -6 43.56 2.76
3 10 6 44.32 2.98
3 10 6 49.14 3.65
3 10 6 49.34 2.26
-4 -10 -6 2.28 1.21
-4 -10 -6 2.49 1.15
4 10 6 3.85 1.29
4 10 6 4.34 1.86
-5 -10 -6 9.89 1.27
-5 -10 -6 8.85 1.43
-5 -10 -6 8 1.51
5 10 6 12.59 1.63
5 10 6 8.87 1.5
5 10 6 9.39 1.03
-6 -10 -6 17.68 2.17
-6 -10 -6 13.52 1.82
6 10 6 15.4 1.88
6 10 6 18.52 2.07
6 10 6 14.86 0.95
6 10 6 14.95 1.3
0 -11 -6 1.33 1.57
0 11 6 5.87 1.66
0 11 6 4.17 1.75
0 11 6 3.43 1.06
-1 -11 -6 2.91 1.53
-1 -11 -6 0.41 1.39
1 11 6 2.95 1
1 11 6 2.93 1.55
1 11 6 2.57 1.67
-2 -11 -6 -1.11 1.32
-2 -11 -6 0.89 1.41
2 11 6 1.74 1.51
2 11 6 1.38 1.47
2 11 6 -1.15 0.78
-3 -11 -6 2.44 1.47
-3 -11 -6 2.17 1.37
3 11 6 2.22 1.6
3 11 6 5.1 1.58
-4 -11 -6 6.09 1.54
-4 -11 -6 5.39 1.65
4 11 6 4.37 1.61
4 11 6 11.1 2.02
-5 -11 -6 4.02 1.49
-5 -11 -6 1.65 1.63
5 11 6 3.83 1.73
5 11 6 3.29 0.81
5 11 6 1.41 1.87
2 6 -7 22.12 2.28
2 6 -7 21.79 2.47
-2 -6 7 21.85 2.43
-2 -6 7 25.18 1.6
1 6 -7 1.22 1.04
1 6 -7 4.54 1.22
-1 -6 7 2.59 1.06
-1 -6 7 1.82 1.13
-1 -6 7 2.01 0.76
0 6 -7 1.97 1.02
0 6 -7 0.62 0.91
0 -6 7 1.8 0.89
0 -6 7 1.77 0.72
0 -6 7 0.46 0.94
-1 6 -7 0.03 0.87
-1 6 -7 -0.52 1.05
-1 6 -7 1.41 0.92
1 -6 7 2.59 0.77
1 -6 7 1.35 0.91
1 -6 7 -0.2 0.77
-2 6 -7 -0.42 0.85
-2 6 -7 0.45 1.14
-2 6 -7 -0.74 0.83
2 -6 7 -0.05 0.66
2 -6 7 -0.32 0.83
-3 6 -7 4.5 1.04
-3 6 -7 4.49 0.55
-3 6 -7 3.61 1.02
-3 6 -7 2.96 1.2
3 -6 7 3.19 0.93
-4 6 -7 3.62 1.08
-4 6 -7 1.87 0.99
-4 6 -7 1.65 1.36
-4 6 -7 5.31 0.81
4 -6 7 6.8 1.04
4 -6 7 4.12 0.97
4 5 -7 2.56 1.4
4 5 -7 0.74 1.48
-4 -5 7 -1.6 1.55
-4 -5 7 1.67 1.68
-4 -5 7 1.76 0.74
3 5 -7 0.27 1.1
3 5 -7 -0.18 1.17
-3 -5 7 0.63 1.18
-3 -5 7 0.98 0.64
-3 -5 7 1.63 1.2
2 5 -7 -0.01 0.91
2 5 -7 0.39 1.02
-2 -5 7 1.1 0.99
-2 -5 7 0.57 0.63
-2 -5 7 1.74 1.06
1 5 -7 -0.43 0.8
1 5 -7 0.43 0.87
-1 -5 7 -0.5 0.54
-1 -5 7 0.29 0.76
-1 -5 7 -0.11 0.84
0 5 -7 2.47 0.86
0 5 -7 2.29 0.81
0 -5 7 0.42 0.77
0 -5 7 1.98 0.66
0 -5 7 1.96 0.75
-1 5 -7 1.4 0.74
-1 5 -7 0.45 0.73
-1 5 -7 1.55 0.95
1 -5 7 0.61 0.57
1 -5 7 1.87 0.69
-2 5 -7 1.26 0.68
-2 5 -7 -0.09 0.68
-2 5 -7 0.68 0.3
-2 5 -7 0.77 0.9
2 -5 7 0.66 0.64
2 -5 7 0.53 0.61
-3 5 -7 9.18 1.26
-3 5 -7 9.82 1.33
-3 5 -7 9.92 1.32
-3 5 -7 7.97 0.89
3 -5 7 9.36 1.21
3 -5 7 8.75 1
-4 5 -7 2.03 1.04
-4 5 -7 0.33 0.6
-4 5 -7 1.29 0.74
-4 5 -7 1.1 0.77
4 -5 7 0.89 0.67
4 -5 7 0.18 0.67
-5 5 -7 6.61 1.01
-5 5 -7 8.59 1.07
-5 5 -7 8.47 1.43
5 -5 7 8.58 1.04
5 -5 7 6.72 0.93
5 -5 7 7.23 0.93
4 4 -7 -0.02 1.26
4 4 -7 1.04 1.21
-4 -4 7 0.03 0.39
-4 -4 7 -0.39 0.61
-4 -4 7 -0.23 1.13
-4 -4 7 -0.18 1.19
3 4 -7 4.12 1.1
3 4 -7 3.83 1.2
-3 -4 7 3.91 1.08
-3 -4 7 2.53 0.69
2 4 -7 0.83 0.82
2 4 -7 1.56 0.93
-2 -4 7 2.32 0.87
-2 -4 7 0.74 0.8
-2 -4 7 1.45 0.59
1 4 -7 8.49 0.91
1 4 -7 11.75 1.35
1 4 -7 7.44 0.97
-1 -4 7 9.35 1.06
-1 -4 7 9.48 1
0 4 -7 29.42 1.73
0 -4 7 30.56 1.62
0 -4 7 29.42 1.65
0 -4 7 31.24 1.74
-1 4 -7 26.95 1.5
-1 4 -7 23.52 1.49
1 -4 7 22.62 1.41
1 -4 7 26.74 1.45
-2 4 -7 3.53 0.65
-2 4 -7 1.92 0.6
-2 4 -7 2.65 0.4
2 -4 7 2.25 0.6
2 -4 7 3.21 0.59
2 -4 7 2.41 0.66
-3 4 -7 41.8 1.9
-3 4 -7 45.2 1.89
-3 4 -7 43.19 1.73
3 -4 7 45.32 2
3 -4 7 41.96 1.85
-4 4 -7 -0.24 0.52
-4 4 -7 -0.08 0.92
-4 4 -7 0.43 0.57
-4 4 -7 0.04 0.58
4 -4 7 -0.25 0.57
-5 4 -7 20.76 1.46
-5 4 -7 19.62 1.92
-5 4 -7 23.11 1.47
5 -4 7 22.67 1.46
5 -4 7 19.2 1.31
-6 4 -7 7.1 0.96
-6 4 -7 6.36 1.32
-6 4 -7 8.4 0.96
6 -4 7 6.21 0.9
5 3 -7 0.27 1.28
5 3 -7 2.15 1.42
-5 -3 7 1.62 1.47
-5 -3 7 1.52 1.39
-5 -3 7 1.6 0.62
-5 -3 7 0.08 0.57
4 3 -7 0.16 1.03
-4 -3 7 -0.24 0.53
-4 -3 7 1.11 1.11
-4 -3 7 0.06 1.03
-4 -3 7 -0.35 0.43
3 3 -7 3.61 1.01
3 3 -7 4.65 1.04
-3 -3 7 3.54 0.98
-3 -3 7 3.23 0.45
-3 -3 7 3.43 0.95
-3 -3 7 3.81 0.65
2 3 -7 1.85 0.8
2 3 -7 0.79 0.72
-2 -3 7 -0.07 0.29
-2 -3 7 -0.13 0.47
-2 -3 7 -0.09 0.67
1 3 -7 83.01 3.15
1 3 -7 84.27 3.15
-1 -3 7 80.39 2.93
-1 -3 7 87.87 3.15
-1 -3 7 80.36 3.07
0 3 -7 0.03 0.52
0 3 -7 0.32 0.52
0 -3 7 -0.04 0.51
0 -3 7 0.38 0.51
0 -3 7 0 0.49
-1 3 -7 0.43 0.46
1 -3 7 0.2 0.44
1 -3 7 -0.31 0.42
1 -3 7 0.49 0.5
-2 3 -7 1.89 0.39
-2 3 -7 1.07 0.47
2 -3 7 1.64 0.45
2 -3 7 1.5 0.54
-3 3 -7 1.77 0.48
3 -3 7 1.1 0.41
3 -3 7 1.19 0.55
-4 3 -7 0.41 0.5
4 -3 7 0.71 0.4
4 -3 7 -0.29 0.5
4 -3 7 0.51 0.38
-5 3 -7 4.56 0.63
5 -3 7 4.16 0.72
5 -3 7 3.95 0.55
5 -3 7 4.42 0.59
-6 3 -7 -0.2 0.66
-6 3 -7 1 0.92
6 -3 7 0 0.65
6 -3 7 -0.35 0.58
6 -3 7 -0.45 0.51
-7 3 -7 10.51 1.29
-7 3 -7 9.56 1.06
-7 3 -7 6.38 1.35
7 -3 7 7.75 0.91
5 2 -7 1.43 1.24
5 2 -7 0.52 1.16
-5 -2 7 2.21 1.26
-5 -2 7 0.53 1.6
-5 -2 7 -0.01 0.52
4 2 -7 16.93 1.78
4 2 -7 15.69 1.85
-4 -2 7 19.44 1.07
-4 -2 7 18.31 1.75
-4 -2 7 15.87 1.11
3 2 -7 11.45 1.51
3 2 -7 12.09 1.46
-3 -2 7 12.63 1.01
-3 -2 7 12.48 1.53
-3 -2 7 13.01 0.9
2 2 -7 11.94 1.55
2 2 -7 12.32 1.27
-2 -2 7 12.6 1.02
-2 -2 7 11.58 0.77
-2 -2 7 10.06 1.22
-2 -2 7 9.5 1.23
1 2 -7 14.81 1.18
1 2 -7 11.19 1.08
-1 -2 7 13.26 0.77
-1 -2 7 12.61 1.15
-1 -2 7 10.67 0.93
-1 -2 7 10.99 1.08
0 2 -7 4.98 0.64
0 -2 7 5.28 0.65
0 -2 7 5.03 0.63
0 -2 7 5.67 0.65
-1 2 -7 6.9 0.76
-1 2 -7 6.92 0.58
-1 2 -7 6.43 0.71
1 -2 7 6.73 0.69
1 -2 7 6.41 0.72
1 -2 7 6.2 0.69
-2 2 -7 0.66 0.35
-2 2 -7 0.58 0.31
-2 2 -7 0.95 0.39
-2 2 -7 1.47 0.62
2 -2 7 0.68 0.3
2 -2 7 0.46 0.45
2 -2 7 0.46 0.29
-3 2 -7 9.87 0.67
-3 2 -7 9.92 0.84
-3 2 -7 9.59 0.64
3 -2 7 10.8 0.59
3 -2 7 10.37 0.95
3 -2 7 9.73 0.56
-4 2 -7 106.72 3.9
-4 2 -7 107.25 3.57
-4 2 -7 106.78 3.27
-4 2 -7 111.08 3.27
4 -2 7 105.89 3.61
4 -2 7 106.27 3.16
4 -2 7 103.59 3.16
-5 2 -7 9.98 0.67
-5 2 -7 10.51 0.83
-5 2 -7 12.75 1.4
5 -2 7 11.29 0.74
5 -2 7 10.38 0.71
5 -2 7 10.53 1.04
-6 2 -7 3.64 0.83
-6 2 -7 4 0.98
-6 2 -7 4.73 0.6
6 -2 7 3.99 0.55
6 -2 7 4.05 0.55
6 -2 7 5.21 0.76
-7 2 -7 -0.16 0.63
-7 2 -7 0.54 0.56
-7 2 -7 0.68 0.93
7 -2 7 0.21 0.56
7 -2 7 -0.36 0.82
7 -2 7 0.73 0.89
7 -2 7 0.05 0.59
-8 2 -7 1.62 0.77
-8 2 -7 -0.08 0.8
8 -2 7 0.53 1.12
8 -2 7 0.56 0.79
8 -2 7 0.69 0.63
6 1 -7 16.73 2.12
6 1 -7 24.27 2.63
-6 -1 7 20.86 2.35
-6 -1 7 16.33 2.1
5 1 -7 19.04 2.21
5 1 -7 18.08 2.16
-5 -1 7 17.1 2.22
4 1 -7 0.81 0.95
4 1 -7 2.21 0.96
-4 -1 7 1.12 0.49
3 1 -7 3.53 0.88
3 1 -7 2.25 0.81
-3 -1 7 2.6 1.05
-3 -1 7 3.8 0.57
-3 -1 7 3.44 0.89
-3 -1 7 3.6 0.52
2 1 -7 10.59 1.18
2 1 -7 14.49 1.23
-2 -1 7 13.3 0.9
-2 -1 7 12.65 0.63
-2 -1 7 12.04 0.85
-2 -1 7 12.46 1.14
-2 -1 7 13.22 1.39
1 1 -7 1.79 0.54
-1 -1 7 2.57 0.55
-1 -1 7 1.63 0.33
-1 -1 7 2.03 0.51
-1 -1 7 1.58 0.54
-1 -1 7 1.84 0.38
0 1 -7 33.28 1.44
0 1 -7 31.25 1.42
0 -1 7 32.96 1.41
0 -1 7 32.45 1.24
0 -1 7 32.94 1.42
0 -1 7 32.85 1.32
0 -1 7 32.65 1.48
-1 1 -7 86.62 2.75
-1 1 -7 87.23 2.76
-1 1 -7 84.37 2.77
1 -1 7 86.24 2.94
1 -1 7 86.8 2.71
-2 1 -7 47.14 1.53
-2 1 -7 47.55 2.05
-2 1 -7 46.13 1.73
-2 1 -7 47.52 1.54
2 -1 7 47.09 1.47
2 -1 7 46.97 1.87
2 -1 7 47.57 1.47
-3 1 -7 1.36 0.17
-3 1 -7 1.63 0.47
-3 1 -7 1.2 0.51
-3 1 -7 1.97 0.24
3 -1 7 0.96 0.47
-4 1 -7 11.61 1.16
-4 1 -7 12.13 0.5
-4 1 -7 11.57 0.95
-4 1 -7 12.24 0.5
4 -1 7 11.18 0.97
-5 1 -7 78.5 3.07
-5 1 -7 78.79 2.46
-5 1 -7 80.71 2.48
5 -1 7 80.91 2.36
5 -1 7 77.1 2.34
5 -1 7 82.56 2.88
-6 1 -7 65.46 2.29
-6 1 -7 69.6 2.88
6 -1 7 66.47 2.54
6 -1 7 65.07 2.19
6 -1 7 64 2.17
6 -1 7 68.3 2.89
-7 1 -7 8.39 1.12
-7 1 -7 8.14 0.98
-7 1 -7 8.09 1.15
7 -1 7 9.01 1.01
7 -1 7 7.76 0.99
7 -1 7 7.28 0.83
7 -1 7 8.96 1.16
-8 1 -7 2.24 0.79
-8 1 -7 2.35 0.73
8 -1 7 0.65 0.97
8 -1 7 2.54 0.65
6 0 -7 2.4 1.46
6 0 -7 0.9 1.42
-6 0 7 0.89 1.5
-6 0 7 0.94 1.45
-6 0 7 -0.18 0.45
5 0 -7 7.19 1.32
5 0 -7 6.37 1.32
-5 0 7 6.75 1.61
-5 0 7 5.97 0.59
-5 0 7 7.53 1.4
4 0 -7 17.91 1.72
4 0 -7 16.23 1.72
-4 0 7 17.96 0.8
3 0 -7 4.58 0.87
-3 0 7 6.61 0.73
-3 0 7 5.61 0.94
-3 0 7 4.59 0.51
-3 0 7 5.63 0.92
2 0 -7 0.5 0.56
2 0 -7 0.78 0.58
-2 0 7 2.16 0.46
-2 0 7 1.33 0.58
-2 0 7 1.04 0.4
-2 0 7 1.43 0.62
-2 0 7 1.06 0.32
1 0 -7 8.61 0.81
1 0 -7 7.45 0.85
-1 0 7 7.86 0.59
-1 0 7 8.42 0.92
-1 0 7 9.33 0.88
-1 0 7 7.89 0.7
-1 0 7 9.28 0.81
0 0 -7 -0.07 0.33
0 0 -7 0.2 0.47
0 0 -7 0.23 0.34
0 0 7 0.35 0.3
0 0 7 0.06 0.3
0 0 7 0.08 0.34
0 0 7 -0.05 0.34
0 0 7 0.17 0.37
-1 0 -7 70.48 2.43
-1 0 -7 71.32 2.35
-1 0 -7 68.44 2.24
1 0 7 72.31 2.39
1 0 7 67.92 2.3
1 0 7 69.52 2.21
1 0 7 70.85 2.45
1 0 7 70.44 2.21
-2 0 -7 43.43 1.7
-2 0 -7 45.53 1.34
-2 0 -7 44.79 1.34
-2 0 -7 45.22 1.89
-2 0 -7 44.57 1.76
2 0 7 46.3 1.79
2 0 7 44.78 1.66
-3 0 -7 24.01 1.39
-3 0 -7 22.68 1.2
-3 0 -7 23.92 1.32
3 0 7 21.86 1.12
3 0 7 23.54 1.19
-4 0 -7 1.52 0.5
-4 0 -7 1.75 0.57
4 0 7 2.18 0.52
-5 0 -7 26.75 1.54
-5 0 -7 26.07 0.91
-5 0 -7 25.98 0.92
5 0 7 26.72 1.33
-6 0 -7 0.23 0.6
-6 0 -7 0.49 0.36
6 0 7 0.52 0.3
6 0 7 0.29 0.3
6 0 7 0.41 0.47
-7 0 -7 0.6 0.46
7 0 7 1.51 0.49
7 0 7 0.79 0.5
7 0 7 1.22 0.76
-8 0 -7 -0.12 0.65
8 0 7 0.16 0.83
8 0 7 0.33 0.7
-9 0 -7 9.65 1.14
9 0 7 9.69 1.4
9 0 7 5.94 1.06
9 0 7 10.25 1.17
6 -1 -7 1.71 1.43
6 -1 -7 1.93 1.42
-6 1 7 2.89 1.55
-6 1 7 4.16 1.56
5 -1 -7 -0.67 1.03
5 -1 -7 -0.03 1.06
-5 1 7 -0.24 1.07
4 -1 -7 -0.42 0.83
4 -1 -7 0.41 0.82
3 -1 -7 7.24 1
3 -1 -7 7.32 1.14
-3 1 7 7.51 1.04
-3 1 7 6.54 0.97
2 -1 -7 6.63 0.76
2 -1 -7 5.81 0.79
2 -1 -7 5.39 0.75
-2 1 7 6.32 0.83
-2 1 7 5.92 0.59
-2 1 7 4.31 0.74
1 -1 -7 -0.02 0.41
1 -1 -7 0.04 0.41
-1 1 7 0.64 0.49
-1 1 7 0.33 0.37
-1 1 7 0.4 0.43
-1 1 7 0.42 0.34
-1 1 7 0.04 0.3
0 -1 -7 22.46 1.07
0 -1 -7 21.36 1.07
0 -1 -7 21.93 1.11
0 1 7 22.4 1.06
0 1 7 21.4 1.08
0 1 7 22.11 1.08
0 1 7 21.56 0.98
0 1 7 20.41 1.05
-1 -1 -7 2.69 0.33
-1 -1 -7 4.32 0.54
-1 -1 -7 2.72 0.44
1 1 7 3.63 0.45
1 1 7 4.11 0.44
1 1 7 3.21 0.5
1 1 7 2.55 0.34
1 1 7 2.51 0.45
-2 -1 -7 16.94 0.51
-2 -1 -7 15.46 0.98
-2 -1 -7 17.2 0.52
-2 -1 -7 16.01 0.99
-2 -1 -7 17.27 0.94
2 1 7 15.88 0.96
2 1 7 15.86 0.87
-3 -1 -7 33.78 1.51
-3 -1 -7 31.73 1.43
-3 -1 -7 31.94 1.43
3 1 7 31.32 1.35
3 1 7 34.12 1.42
-4 -1 -7 4.01 0.61
-4 -1 -7 4.06 0.65
-4 -1 -7 4.11 0.62
4 1 7 3.38 0.54
4 1 7 3.96 0.59
-5 -1 -7 52.94 2.18
-5 -1 -7 51.79 1.64
-5 -1 -7 52.98 2.18
5 1 7 50.56 2.01
5 1 7 62.27 2.23
-6 -1 -7 2.17 0.4
6 1 7 1.74 0.35
6 1 7 2.01 0.34
6 1 7 2.13 0.66
-7 -1 -7 13.51 1.01
-7 -1 -7 11.86 1.04
7 1 7 11.06 0.96
7 1 7 10.47 1.35
-8 -1 -7 2.27 0.68
-8 -1 -7 0.45 0.68
8 1 7 2.87 0.71
8 1 7 1.63 0.82
8 1 7 2.56 0.69
-9 -1 -7 4.17 0.97
-9 -1 -7 4.27 0.96
9 1 7 7 1.03
9 1 7 4.52 0.95
9 1 7 3.32 1.09
6 -2 -7 -0.57 1.36
6 -2 -7 2.58 1.46
-6 2 7 -0.78 1.38
-6 2 7 -0.19 1.48
5 -2 -7 -0.5 1.02
5 -2 -7 -0.4 1.06
-5 2 7 0.06 1.21
-5 2 7 -0.61 1.11
4 -2 -7 154.97 5.62
4 -2 -7 155.8 5.58
-4 2 7 169.26 5.61
3 -2 -7 6.33 1.13
3 -2 -7 5.34 0.91
3 -2 -7 5.66 0.59
-3 2 7 6.61 0.93
2 -2 -7 4.7 0.59
2 -2 -7 4.74 0.73
2 -2 -7 4.63 0.75
-2 2 7 4.21 0.75
-2 2 7 3.98 0.71
1 -2 -7 86.19 2.95
1 -2 -7 79.09 2.91
1 -2 -7 81.02 2.73
-1 2 7 83.45 2.69
-1 2 7 87.58 2.96
-1 2 7 84.41 2.96
-1 2 7 86.07 2.86
0 -2 -7 -0.55 0.38
0 -2 -7 0.32 0.33
0 -2 -7 -0.01 0.33
0 2 7 0.26 0.35
0 2 7 -0.06 0.3
0 2 7 0.22 0.34
0 2 7 0.23 0.32
-1 -2 -7 4.12 0.52
-1 -2 -7 3.81 0.5
-1 -2 -7 4.46 0.56
-1 -2 -7 3.65 0.5
1 2 7 4.15 0.5
1 2 7 4.6 0.51
1 2 7 3.86 0.5
-2 -2 -7 14.91 0.61
-2 -2 -7 15.1 0.96
-2 -2 -7 13.69 0.59
-2 -2 -7 13.56 0.89
-2 -2 -7 15.37 0.91
2 2 7 15.11 0.84
2 2 7 14.11 0.56
2 2 7 14.45 0.91
2 2 7 14.56 0.56
-3 -2 -7 1.58 0.49
-3 -2 -7 1.64 0.4
-3 -2 -7 1.26 0.43
3 2 7 0.9 0.4
-4 -2 -7 28.87 1.42
-4 -2 -7 30.6 1.46
-4 -2 -7 29.38 0.87
-4 -2 -7 29.05 1.35
4 2 7 29.36 1.34
-5 -2 -7 7.87 0.52
-5 -2 -7 7.88 0.84
-5 -2 -7 6.74 0.79
-5 -2 -7 7.73 0.53
-5 -2 -7 8.72 0.98
5 2 7 7.81 0.47
5 2 7 6.23 0.71
5 2 7 7.69 0.45
-6 -2 -7 46.12 2.12
-6 -2 -7 47.88 1.73
6 2 7 47.39 2.06
6 2 7 45.98 1.66
6 2 7 47.42 1.69
-7 -2 -7 1.06 0.52
-7 -2 -7 0.07 0.49
7 2 7 0.45 0.46
-8 -2 -7 25.04 1.68
-8 -2 -7 24.15 1.56
8 2 7 25.07 1.55
8 2 7 21.75 1.52
8 2 7 25.13 1.77
-9 -2 -7 4.96 1.06
-9 -2 -7 5.13 0.98
9 2 7 4.22 1.05
9 2 7 4.49 1
9 2 7 4.2 0.96
6 -3 -7 -0.85 1.37
6 -3 -7 -0.6 1.46
-6 3 7 0.77 1.56
-6 3 7 1.45 1.57
5 -3 -7 7.48 1.43
5 -3 -7 12.21 1.54
-5 3 7 11.16 1.55
-5 3 7 9.22 1.54
4 -3 -7 24.1 2.01
4 -3 -7 29.06 1.29
4 -3 -7 31.33 2.08
-4 3 7 29.45 2.16
3 -3 -7 25.54 1.68
3 -3 -7 25.07 1.2
-3 3 7 20.96 1.61
2 -3 -7 52.04 1.94
2 -3 -7 52.45 2.27
2 -3 -7 53.78 2.35
-2 3 7 53.57 2.1
-2 3 7 54.99 2.31
-2 3 7 51.82 2.27
1 -3 -7 0.25 0.45
1 -3 -7 -0.47 0.41
-1 3 7 -0.18 0.45
0 -3 -7 0.32 0.38
0 -3 -7 0.48 0.4
0 -3 -7 -0.07 0.42
0 3 7 0.12 0.41
0 3 7 0.36 0.36
0 3 7 0.48 0.4
-1 -3 -7 25.1 1.21
-1 -3 -7 24.38 1.2
-1 -3 -7 25.82 1.13
-1 -3 -7 24.7 1.11
1 3 7 24.18 1.12
1 3 7 24.94 1.11
1 3 7 23.36 1.11
1 3 7 25.41 1.23
-2 -3 -7 2.86 0.4
-2 -3 -7 4.06 0.49
-2 -3 -7 4.36 0.55
-2 -3 -7 4.42 0.59
-2 -3 -7 3.9 0.49
2 3 7 3.32 0.51
2 3 7 3.57 0.53
2 3 7 3.87 0.49
-3 -3 -7 6.36 0.78
-3 -3 -7 5.59 0.62
-3 -3 -7 6.05 0.46
-3 -3 -7 6.24 0.68
3 3 7 5.96 0.66
3 3 7 6.45 0.46
3 3 7 6.05 0.45
-4 -3 -7 22.27 0.91
-4 -3 -7 24.11 1.12
-4 -3 -7 23.19 1.29
-4 -3 -7 22.88 0.92
-4 -3 -7 23.47 1.24
4 3 7 21.23 1.14
4 3 7 22.71 0.89
4 3 7 23.11 0.89
-5 -3 -7 3.94 0.67
-5 -3 -7 4.59 0.53
-5 -3 -7 3.7 0.69
5 3 7 4.34 0.55
5 3 7 4.4 0.56
5 3 7 3.81 0.55
5 3 7 4.23 0.65
-6 -3 -7 19.73 1.11
6 3 7 21.76 1.09
6 3 7 23.25 1.25
-7 -3 -7 2.26 0.59
-7 -3 -7 2.37 0.59
7 3 7 2.39 0.56
7 3 7 3.65 0.7
7 3 7 1.24 0.57
-8 -3 -7 0.28 0.64
-8 -3 -7 0.13 0.65
8 3 7 0.73 0.69
8 3 7 0.57 0.66
8 3 7 -0.01 0.74
-9 -3 -7 2.11 0.94
-9 -3 -7 1.97 0.95
9 3 7 2.01 0.97
9 3 7 2.97 0.95
9 3 7 2.96 0.98
6 -4 -7 -2.46 1.43
6 -4 -7 0.01 1.52
-6 4 7 2.72 1.68
-6 4 7 -3.02 1.56
5 -4 -7 15.72 2.11
5 -4 -7 13.38 1.66
5 -4 -7 13.23 0.95
-5 4 7 13.41 1.74
-5 4 7 14.65 1.8
4 -4 -7 25.78 2.08
4 -4 -7 27.23 2.17
4 -4 -7 23.46 1.28
-4 4 7 25.73 2.07
-4 4 7 24.32 2.17
3 -4 -7 16.95 1.11
3 -4 -7 16.12 1.57
3 -4 -7 15.67 1.58
2 -4 -7 0.13 0.59
2 -4 -7 -0.18 0.48
2 -4 -7 0.38 0.65
-2 4 7 -1.26 0.66
-2 4 7 0.43 0.46
1 -4 -7 3.97 0.58
1 -4 -7 4.35 0.68
-1 4 7 4.64 0.71
-1 4 7 3.04 0.65
0 -4 -7 0.2 0.46
0 -4 -7 -0.03 0.42
0 4 7 -0.76 0.34
0 4 7 -0.03 0.46
0 4 7 0.03 0.42
-1 -4 -7 35.21 1.54
-1 -4 -7 36.22 1.53
-1 -4 -7 34.9 1.52
1 4 7 34.66 1.51
1 4 7 36.48 1.57
1 4 7 37.82 1.55
-2 -4 -7 35.5 1.3
-2 -4 -7 35.82 1.55
-2 -4 -7 36.95 1.48
-2 -4 -7 36.88 1.6
2 4 7 37.22 1.48
2 4 7 34.96 1.49
2 4 7 36.53 1.6
2 4 7 38.04 1.46
-3 -4 -7 18.98 0.95
-3 -4 -7 19.41 1.14
-3 -4 -7 17.19 0.84
-3 -4 -7 18.51 0.94
-3 -4 -7 19.44 1.13
3 4 7 17.32 0.94
3 4 7 19 1.04
3 4 7 19.61 0.94
-4 -4 -7 0.44 0.55
-4 -4 -7 -0.03 0.31
-4 -4 -7 -0.25 0.42
-4 -4 -7 -0.2 0.29
4 4 7 0.39 0.31
4 4 7 0.33 0.38
4 4 7 -0.13 0.3
-5 -4 -7 2.54 0.63
-5 -4 -7 3.12 0.49
-5 -4 -7 2.92 0.47
5 4 7 2.54 0.46
5 4 7 4.04 0.51
5 4 7 3.58 0.6
5 4 7 2.98 0.49
-6 -4 -7 -0.49 0.43
6 4 7 1.04 0.46
6 4 7 0.6 0.47
6 4 7 1.13 0.55
-7 -4 -7 0.81 0.57
-7 -4 -7 1.59 0.56
7 4 7 0.58 0.56
7 4 7 1.8 0.62
7 4 7 0.45 0.58
-8 -4 -7 14.4 1.45
-8 -4 -7 14.42 1.63
-8 -4 -7 13.65 1.47
8 4 7 14.85 1.49
8 4 7 15.1 1.47
-9 -4 -7 14.44 1.8
-9 -4 -7 15.44 1.81
9 4 7 13.68 1.82
9 4 7 18.96 1.85
9 4 7 14.33 1.64
5 -5 -7 0.08 1.29
5 -5 -7 0.66 1.35
-5 5 7 1.68 1.37
4 -5 -7 12.22 1.47
4 -5 -7 7.54 0.83
4 -5 -7 9.18 1.4
-4 5 7 9.03 1.39
3 -5 -7 1.17 0.65
3 -5 -7 0.34 0.87
3 -5 -7 1.69 0.9
-3 5 7 0.34 0.85
2 -5 -7 58.47 2.6
2 -5 -7 58.48 2.74
-2 5 7 57.72 2.37
-2 5 7 60.84 2.63
1 -5 -7 0.95 0.58
1 -5 -7 0.52 0.59
-1 5 7 -0.04 0.57
-1 5 7 -0.44 0.53
-1 5 7 -0.31 0.43
0 -5 -7 5.48 0.75
0 5 7 6 0.77
0 5 7 5.35 0.75
-1 -5 -7 6.42 0.86
1 5 7 4.1 0.62
1 5 7 4.7 0.65
-2 -5 -7 1.07 0.47
-2 -5 -7 1.23 0.19
-2 -5 -7 1.37 0.45
-2 -5 -7 0.57 0.43
2 5 7 1.81 0.47
2 5 7 1.11 0.48
2 5 7 1.35 0.48
-3 -5 -7 25.94 1.34
-3 -5 -7 24.6 1.24
-3 -5 -7 25.18 1.25
3 5 7 26.1 1.26
3 5 7 24.09 1.23
3 5 7 24.64 1.26
-4 -5 -7 1.35 0.54
-4 -5 -7 2.7 0.5
4 5 7 2.23 0.55
4 5 7 1.56 0.46
4 5 7 1.7 0.48
-5 -5 -7 6.29 0.81
-5 -5 -7 5.62 0.68
5 5 7 6.45 0.68
5 5 7 5.8 1.29
5 5 7 5.93 0.71
5 5 7 5.72 0.69
-6 -5 -7 5.25 0.85
-6 -5 -7 5.23 0.72
-6 -5 -7 5.27 0.7
6 5 7 5.79 0.75
6 5 7 3.73 0.55
6 5 7 4.53 0.7
6 5 7 4.4 0.7
-7 -5 -7 7.03 0.91
-7 -5 -7 6.3 0.82
7 5 7 5.59 0.84
7 5 7 6.9 0.83
7 5 7 6.26 0.86
-8 -5 -7 0.73 0.92
-8 -5 -7 0.76 0.74
-8 -5 -7 -0.1 0.77
8 5 7 -0.19 0.58
8 5 7 0.74 0.8
8 5 7 -0.25 0.76
-9 -5 -7 4.36 1.09
-9 -5 -7 5.19 1.13
-9 -5 -7 2.76 1.23
9 5 7 4.26 1.13
9 5 7 1.98 0.94
9 5 7 5.04 1.22
5 -6 -7 1.48 1.49
5 -6 -7 0.19 0.83
5 -6 -7 2.38 1.52
-5 6 7 1.39 1.42
-5 6 7 4.64 1.66
4 -6 -7 1.87 1.19
4 -6 -7 0.28 0.84
4 -6 -7 0.84 1.12
4 -6 -7 0.42 0.65
-4 6 7 0.83 1.23
-4 6 7 1.69 1.26
3 -6 -7 0.54 0.95
3 -6 -7 1.68 1
-3 6 7 0.42 1.01
-3 6 7 -1.17 0.94
2 -6 -7 9.39 1.18
2 -6 -7 13.26 1.55
-2 6 7 11.38 1.02
1 -6 -7 63.76 2.78
1 -6 -7 67.46 2.84
-1 6 7 70.76 2.86
-1 6 7 68.13 2.62
0 -6 -7 0.54 0.58
0 -6 -7 0.68 0.6
0 6 7 0.9 0.62
0 6 7 0.12 0.45
0 6 7 0.41 0.6
-1 -6 -7 13.6 1.18
1 6 7 14.34 1.2
1 6 7 15.24 1.19
1 6 7 13.78 1.03
-2 -6 -7 0.23 0.47
-2 -6 -7 -0.08 0.46
2 6 7 0.19 0.5
2 6 7 0.38 0.51
-3 -6 -7 3.07 0.62
-3 -6 -7 2.94 0.64
3 6 7 3.69 0.6
3 6 7 2.82 0.6
3 6 7 3.41 0.63
-4 -6 -7 50.66 2.06
-4 -6 -7 51.17 2.11
-4 -6 -7 48.24 2.06
4 6 7 48.7 2.09
4 6 7 46.99 1.94
4 6 7 51.44 2.09
-5 -6 -7 5.98 1.38
-5 -6 -7 8.43 1.04
-5 -6 -7 7.95 0.97
5 6 7 7.62 0.67
5 6 7 6.94 0.84
5 6 7 7.86 0.88
-6 -6 -7 2.65 0.68
-6 -6 -7 1.04 0.71
-6 -6 -7 2.15 0.75
6 6 7 0.33 0.66
6 6 7 1.65 0.68
6 6 7 1.57 0.57
6 6 7 0.5 0.4
-7 -6 -7 0.7 0.71
-7 -6 -7 0.66 0.78
-7 -6 -7 0.4 0.68
7 6 7 -1.03 0.49
7 6 7 1.77 0.78
-8 -6 -7 16.83 1.74
-8 -6 -7 22.7 1.89
-8 -6 -7 20.28 1.9
8 6 7 18.41 1.8
8 6 7 20.45 1.31
8 6 7 17.86 1.47
8 6 7 20.77 1.88
-9 -6 -7 7.87 1.49
-9 -6 -7 7.93 1.44
-9 -6 -7 9.13 1.36
9 6 7 7.23 1.32
9 6 7 8.94 1.15
9 6 7 8.32 1.38
4 -7 -7 2.85 1.48
4 -7 -7 3.73 0.85
4 -7 -7 4.73 1.39
-4 7 7 3.2 1.55
-4 7 7 2.85 1.39
3 -7 -7 11.01 1.48
3 -7 -7 9.54 1.41
-3 7 7 6.25 1.4
-3 7 7 10.43 1.47
2 -7 -7 1.18 0.46
2 -7 -7 1.12 0.89
-2 7 7 1.56 0.97
-2 7 7 0.16 0.6
-2 7 7 0.57 1.11
1 -7 -7 14.47 0.83
1 -7 -7 14.57 1.55
1 -7 -7 13.37 1.51
-1 7 7 13.95 1.38
-1 7 7 13.33 1.23
0 -7 -7 2.29 0.92
0 -7 -7 1.76 0.78
0 -7 -7 1.83 0.19
0 7 7 2.44 0.61
0 7 7 2.51 0.8
-1 -7 -7 12.75 1.35
1 7 7 14.1 1.1
1 7 7 11.5 1.28
-2 -7 -7 1.84 0.67
-2 -7 -7 2.01 0.68
2 7 7 0.59 0.64
2 7 7 0.88 0.63
2 7 7 1.23 0.55
-3 -7 -7 30.97 1.67
-3 -7 -7 33.26 1.59
-3 -7 -7 31.43 1.73
3 7 7 29.48 1.68
3 7 7 30.68 1.92
3 7 7 28.26 1.53
-4 -7 -7 9.57 1.14
-4 -7 -7 8.01 1.03
-4 -7 -7 6.9 0.88
4 7 7 6.8 1.08
4 7 7 8.51 0.96
4 7 7 8.23 0.91
-5 -7 -7 48.72 2.19
-5 -7 -7 50.34 2.29
5 7 7 49.14 1.67
5 7 7 48.8 2.25
5 7 7 48.81 2.26
5 7 7 49 2.04
-6 -7 -7 3.68 0.86
-6 -7 -7 4.29 0.9
6 7 7 5.69 0.93
6 7 7 5.53 0.74
6 7 7 5.31 0.75
-7 -7 -7 1.52 0.84
-7 -7 -7 0.42 0.87
-7 -7 -7 0.22 0.79
7 7 7 0.41 0.82
7 7 7 1.2 0.91
7 7 7 1.47 0.64
-8 -7 -7 16.14 1.86
-8 -7 -7 12.72 1.5
-8 -7 -7 13.9 1.79
8 7 7 14.84 1.21
8 7 7 17.53 1.41
8 7 7 14.97 1.63
8 7 7 15.13 1.83
4 -8 -7 0.42 0.95
4 -8 -7 -0.8 1.52
4 -8 -7 -0.69 1.42
-4 8 7 2.12 1.55
-4 8 7 -0.94 1.63
3 -8 -7 8.39 1.56
3 -8 -7 3.68 1.34
-3 8 7 5.41 1.49
-3 8 7 4.77 1.44
-3 8 7 5.36 0.98
2 -8 -7 3.82 1.17
2 -8 -7 3.92 1.18
2 -8 -7 3.7 0.58
-2 8 7 2.58 1.24
-2 8 7 3.91 1.28
-2 8 7 4.23 0.87
1 -8 -7 0.54 0.31
1 -8 -7 1.47 0.92
-1 8 7 0.14 0.98
-1 8 7 -1 1.26
-1 8 7 -0.59 0.62
0 -8 -7 0.21 0.82
0 -8 -7 0.24 0.8
0 8 7 0.39 0.6
-1 -8 -7 4.72 0.96
1 8 7 2.74 0.68
-2 -8 -7 17.55 1.56
-2 -8 -7 16.7 1.54
2 8 7 15.21 1.58
2 8 7 16.01 1.25
-3 -8 -7 2.25 0.82
-3 -8 -7 2.18 0.76
-3 -8 -7 1.62 0.78
3 8 7 2.43 0.64
3 8 7 4.24 0.89
3 8 7 1.66 0.8
-4 -8 -7 13.11 1.48
-4 -8 -7 13.16 1.44
-4 -8 -7 11.58 1.19
4 8 7 12.44 1.47
4 8 7 12.35 1.08
-5 -8 -7 -0.96 0.69
-5 -8 -7 1.15 0.65
-5 -8 -7 0.48 0.8
5 8 7 -0.39 0.51
5 8 7 -0.21 0.72
-6 -8 -7 2.58 0.93
-6 -8 -7 -0.11 0.81
6 8 7 0.68 0.36
6 8 7 0.17 0.9
6 8 7 1.41 0.87
6 8 7 1.66 0.62
-7 -8 -7 3.91 0.97
-7 -8 -7 6.23 1.24
-7 -8 -7 5.75 1.13
7 8 7 5.04 1.23
7 8 7 4.83 0.8
7 8 7 4.37 0.62
-8 -8 -7 0.63 1.25
-8 -8 -7 -0.57 1.12
-8 -8 -7 1.54 1.11
8 8 7 -0.98 0.65
8 8 7 -0.88 1.28
8 8 7 1.08 0.69
3 -9 -7 12.47 1.96
3 -9 -7 15.54 2.04
-3 9 7 16.77 1.97
-3 9 7 11.59 2.05
-3 9 7 16.35 2.03
2 -9 -7 41.45 2.86
2 -9 -7 41.51 1.76
2 -9 -7 45.83 2.98
-2 9 7 41.42 3.21
-2 9 7 44.74 3.16
-2 9 7 43.55 2.31
1 -9 -7 3.54 1.24
1 -9 -7 4.82 1.25
-1 9 7 1.99 1.26
-1 9 7 3.21 0.83
-1 9 7 3.33 1.33
0 -9 -7 16.71 1.96
0 -9 -7 13.11 1.82
0 9 7 15.95 2.04
0 9 7 20.47 2.05
0 9 7 15.01 1.43
-1 -9 -7 1.14 0.97
1 9 7 -0.28 0.94
1 9 7 2.48 0.72
-2 -9 -7 3.7 1.08
-2 -9 -7 5.68 1.06
2 9 7 6.22 1.17
-3 -9 -7 -0.68 0.81
-3 -9 -7 1.4 0.95
-4 -9 -7 1.62 0.9
-4 -9 -7 2.27 0.75
-4 -9 -7 3.13 1.02
4 9 7 0.88 0.97
4 9 7 1.79 0.64
4 9 7 -0.86 1.04
-5 -9 -7 3.51 1.08
-5 -9 -7 2.49 0.97
5 9 7 4.68 1.15
5 9 7 1.81 0.67
-6 -9 -7 10.76 1.47
-6 -9 -7 15.58 1.83
-6 -9 -7 12.97 1.45
6 9 7 13.53 1.2
6 9 7 9.57 1.47
6 9 7 11.88 0.76
-7 -9 -7 7.14 1.3
-7 -9 -7 7 2.4
-7 -9 -7 5.54 1.14
7 9 7 3.69 1.42
7 9 7 4.49 0.61
7 9 7 5.1 0.83
7 9 7 4.04 1.27
2 -10 -7 17.7 2.16
2 -10 -7 27.27 3
-2 10 7 16.96 2.23
-2 10 7 11.17 2.13
-2 10 7 18.96 1.88
1 -10 -7 37.7 3.04
1 -10 -7 38.12 2.99
-1 10 7 33.79 2.14
-1 10 7 35.56 2.92
-1 10 7 36.41 3.03
0 -10 -7 1.8 1.29
0 -10 -7 0.42 1.28
0 10 7 0.23 1.26
0 10 7 1.02 0.81
0 10 7 0.2 1.26
-1 -10 -7 1.97 1.17
1 10 7 -1.07 1.13
1 10 7 0.3 1.23
1 10 7 -0.39 0.78
-2 -10 -7 2.12 1.16
-2 -10 -7 -1 0.98
2 10 7 -1.03 0.72
2 10 7 -0.64 1.14
-3 -10 -7 -0.57 0.99
-3 -10 -7 -1.6 1.12
3 10 7 0.88 1.23
3 10 7 0.75 1.13
3 10 7 -0.21 0.72
-4 -10 -7 25.24 2.3
-4 -10 -7 31.31 2.26
4 10 7 29.96 2.51
4 10 7 27.44 2.47
-5 -10 -7 2.1 1.14
-5 -10 -7 1.03 1.27
-5 -10 -7 3 0.89
5 10 7 4.78 0.83
5 10 7 4.68 1.33
5 10 7 5.22 1.3
-6 -10 -7 -0.02 1.35
-6 -10 -7 -0.2 0.91
-6 -10 -7 -2.31 1.1
6 10 7 -1.15 1.27
6 10 7 -0.23 0.68
0 -11 -7 5.25 1.71
0 -11 -7 8.27 1.82
0 11 7 8.82 1.97
0 11 7 7.72 1.25
0 11 7 3.78 1.82
-1 -11 -7 11.62 1.8
1 11 7 10.54 1.31
1 11 7 16 2.11
1 11 7 8.93 1.83
-2 -11 -7 1.02 1.47
-2 -11 -7 -0.44 1.33
2 11 7 1.56 0.88
2 11 7 0.06 1.48
2 11 7 3.24 1.58
-3 -11 -7 -0.84 1.27
-3 -11 -7 1.96 1.54
3 11 7 0.37 1.44
3 11 7 3.04 0.92
3 11 7 1.21 1.74
-4 -11 -7 44.6 3.17
-4 -11 -7 45.99 3.12
4 11 7 46.32 3.28
4 11 7 40.49 3.39
-5 -11 -7 18.42 2.36
-5 -11 -7 12.49 1.95
5 11 7 15.66 3.17
5 11 7 12.95 1.32
5 11 7 13.98 2
0 6 -8 0.28 1.45
0 6 -8 1.64 1.14
0 6 -8 1.42 1.22
0 -6 8 3.25 1.14
0 -6 8 2.88 1.2
-1 6 -8 10.61 1.4
-1 6 -8 9.84 1.36
-1 6 -8 9.57 1.61
1 -6 8 7.14 1.15
1 -6 8 11.23 1.36
-2 6 -8 7.76 1.23
-2 6 -8 6.71 1.16
-2 6 -8 7.05 1.86
2 -6 8 8.3 1.21
2 -6 8 8.22 1.12
2 5 -8 -0.39 1.12
2 5 -8 1.14 1.16
-2 -5 8 1.08 0.74
-2 -5 8 1.48 1.26
1 5 -8 3.55 1.06
1 5 -8 2.8 1.15
-1 -5 8 3.39 1.02
-1 -5 8 1.95 1.06
-1 -5 8 3.92 0.83
0 5 -8 -0.1 0.86
0 5 -8 1.45 0.94
0 -5 8 0.17 0.66
0 -5 8 0.07 0.85
0 -5 8 0.68 0.88
-1 5 -8 0.29 1.04
-1 5 -8 0.24 0.81
-1 5 -8 -1.05 0.77
1 -5 8 -0.67 0.69
1 -5 8 -0.28 0.77
1 -5 8 0.13 0.62
-2 5 -8 11.9 1.43
-2 5 -8 11.43 1.46
-2 5 -8 10.22 1.1
2 -5 8 8.9 1.09
2 -5 8 9.78 1.29
-3 5 -8 0.68 0.47
-3 5 -8 -0.25 0.76
-3 5 -8 0.29 1.13
-3 5 -8 0.44 0.77
3 -5 8 1.12 0.68
3 -5 8 0.91 1
-4 5 -8 4.51 1.38
-4 5 -8 7.28 0.97
-4 5 -8 5.23 0.88
-4 5 -8 7.29 1
3 4 -8 -0.76 1.15
3 4 -8 0.18 1.15
-3 -4 8 0.71 0.62
-3 -4 8 0.01 1.19
2 4 -8 -0.3 1.01
2 4 -8 -0.29 0.92
-2 -4 8 0.31 0.61
-2 -4 8 -0.27 0.96
-2 -4 8 -0.32 0.87
1 4 -8 2.21 0.82
1 4 -8 0.26 0.82
-1 -4 8 1.17 0.62
-1 -4 8 0.29 0.78
-1 -4 8 1.14 0.88
0 4 -8 -0.41 0.72
0 4 -8 -0.93 0.66
0 -4 8 0.52 0.7
0 -4 8 0.3 0.58
-1 4 -8 1.29 1.02
-1 4 -8 2.41 0.71
-1 4 -8 1.33 0.7
1 -4 8 1.72 0.64
1 -4 8 1.54 0.63
1 -4 8 2.26 0.67
-2 4 -8 0.52 0.6
-2 4 -8 0.73 0.91
-2 4 -8 0.94 0.37
2 -4 8 0.38 0.57
2 -4 8 0.97 0.66
2 -4 8 1.65 0.58
-3 4 -8 1.29 0.51
-3 4 -8 1.98 0.69
-3 4 -8 2.88 0.69
-3 4 -8 0.67 0.9
3 -4 8 1.28 0.72
3 -4 8 1.22 0.61
-4 4 -8 11.83 1.43
-4 4 -8 12.76 1.19
4 -4 8 11.75 1.02
4 -4 8 12.65 1.27
-5 4 -8 1.29 1.09
-5 4 -8 1.61 0.68
-5 4 -8 1.74 0.82
-5 4 -8 1.73 0.81
5 -4 8 0.65 0.55
5 -4 8 0.08 0.69
5 -4 8 0.68 0.54
-6 4 -8 0.04 0.94
-6 4 -8 0.33 0.86
-6 4 -8 0.23 0.74
6 -4 8 1.01 0.72
6 -4 8 0.13 0.62
4 3 -8 -1.5 1.2
4 3 -8 -0.37 1.27
-4 -3 8 1.23 0.54
-4 -3 8 0.79 0.66
-4 -3 8 -1.26 1.27
-4 -3 8 1.63 1.4
3 3 -8 7.82 1.29
3 3 -8 6.47 1.29
-3 -3 8 6.09 0.81
-3 -3 8 7.5 0.82
-3 -3 8 7.78 1.3
2 3 -8 1.88 0.92
2 3 -8 1.8 0.91
-2 -3 8 1.38 0.6
-2 -3 8 1.43 0.76
-2 -3 8 2 0.88
-2 -3 8 0.73 0.36
1 3 -8 0.37 0.71
1 3 -8 -0.27 0.7
-1 -3 8 -0.28 0.53
-1 -3 8 -0.83 0.62
0 3 -8 43.55 1.97
0 3 -8 40.23 2.74
0 -3 8 40.8 1.94
0 -3 8 43.01 1.97
0 -3 8 42.75 1.94
-1 3 -8 26.59 1.41
-1 3 -8 25.23 1.44
1 -3 8 24.78 1.36
1 -3 8 26.71 1.51
1 -3 8 25.33 1.36
-2 3 -8 2.77 0.53
-2 3 -8 2.97 0.61
-2 3 -8 2.32 0.44
2 -3 8 1.93 0.64
2 -3 8 2.33 0.48
2 -3 8 2.35 0.66
-3 3 -8 0.82 0.48
-3 3 -8 1.06 0.5
3 -3 8 0.81 0.39
3 -3 8 0.78 0.37
3 -3 8 1.33 0.62
-4 3 -8 63.97 2.24
-4 3 -8 70.58 2.2
-4 3 -8 63.32 2.48
-4 3 -8 65.12 3.14
4 -3 8 61.65 2.08
4 -3 8 62.33 2.09
4 -3 8 67.58 2.64
-5 3 -8 1.2 0.48
-5 3 -8 0.54 0.82
-5 3 -8 1.16 0.47
-5 3 -8 0.97 0.9
5 -3 8 1.58 0.68
5 -3 8 0.71 0.36
5 -3 8 0.43 0.37
-6 3 -8 -0.18 0.56
-6 3 -8 1.75 1.11
-6 3 -8 1.12 0.78
6 -3 8 0.86 0.67
6 -3 8 0.03 0.46
6 -3 8 1.45 0.49
-7 3 -8 2.28 0.75
-7 3 -8 2.34 0.77
7 -3 8 2.55 0.82
7 -3 8 1.63 0.63
5 2 -8 0.05 1.44
5 2 -8 1.66 1.52
-5 -2 8 1.38 0.73
-5 -2 8 -0.8 1.73
-5 -2 8 2.8 1.59
4 2 -8 5 1.25
4 2 -8 4.81 1.37
-4 -2 8 6.01 1.41
-4 -2 8 7.16 0.81
-4 -2 8 6.44 1.31
3 2 -8 2.92 0.97
3 2 -8 3.97 1.07
-3 -2 8 4.58 0.6
-3 -2 8 5.43 1.09
-3 -2 8 3.55 0.69
-3 -2 8 5.26 1.11
2 2 -8 4.97 0.93
2 2 -8 2.61 0.83
-2 -2 8 2.89 0.8
-2 -2 8 3.67 0.52
-2 -2 8 3.58 0.67
1 2 -8 178.97 6.81
1 2 -8 195.78 6.21
-1 -2 8 199.74 5.81
-1 -2 8 201.31 6.17
-1 -2 8 198.69 6.2
-1 -2 8 198.26 6.07
0 2 -8 145.16 4.7
0 2 -8 143.09 4.7
0 -2 8 149.75 4.75
0 -2 8 148.53 4.66
0 -2 8 147.08 4.67
-1 2 -8 13.47 0.91
-1 2 -8 12.13 0.98
1 -2 8 11.57 0.91
1 -2 8 10.65 1.04
-2 2 -8 16.55 0.95
-2 2 -8 15.26 0.94
-2 2 -8 18.37 1.55
-2 2 -8 18.66 0.9
2 -2 8 16.43 0.85
2 -2 8 16.79 0.86
2 -2 8 17.36 1.21
-3 2 -8 0.18 0.46
-3 2 -8 0.32 0.69
-3 2 -8 0.48 0.29
-3 2 -8 0.3 0.29
3 -2 8 -0.52 0.49
3 -2 8 0.18 0.2
3 -2 8 0.15 0.16
-4 2 -8 18.49 0.79
-4 2 -8 18.38 1.28
-4 2 -8 18.69 0.79
-4 2 -8 16.14 1.56
4 -2 8 18.88 1.3
-5 2 -8 8.37 1.12
-5 2 -8 9.53 0.65
5 -2 8 8.8 0.95
-6 2 -8 0.33 0.4
-6 2 -8 2.7 1
6 -2 8 1.13 0.29
6 -2 8 0.51 0.66
6 -2 8 1.02 0.25
-7 2 -8 5.16 1.28
-7 2 -8 5.84 0.73
7 -2 8 4.68 0.86
7 -2 8 6.66 0.82
5 1 -8 0.53 1.3
5 1 -8 1.22 1.4
-5 -1 8 2.43 1.57
-5 -1 8 0.36 1.38
-5 -1 8 2.27 0.74
4 1 -8 36.16 2.59
4 1 -8 39.78 2.56
-4 -1 8 37.84 2.59
-4 -1 8 39.93 2.54
-4 -1 8 39.48 1.68
-4 -1 8 38.11 1.81
3 1 -8 2.35 0.89
3 1 -8 0.96 0.85
-3 -1 8 0.35 0.49
-3 -1 8 4.32 0.98
-3 -1 8 1.31 0.85
2 1 -8 4.97 0.89
2 1 -8 5.12 0.87
-2 -1 8 6.64 0.76
-2 -1 8 4.08 0.81
-2 -1 8 4.2 0.84
-2 -1 8 3.72 0.63
1 1 -8 20.7 1.38
1 1 -8 21.32 1.37
-1 -1 8 21.4 1.12
-1 -1 8 20.24 1.21
-1 -1 8 21.09 1.37
-1 -1 8 20.9 1.38
0 1 -8 9.42 0.93
0 -1 8 9.08 0.76
0 -1 8 10.35 0.92
0 -1 8 10.92 0.94
0 -1 8 8.78 0.91
-1 1 -8 0.33 0.42
-1 1 -8 0.41 0.35
1 -1 8 0.65 0.48
1 -1 8 0.53 0.34
-2 1 -8 0.23 0.59
-2 1 -8 0.09 0.25
-2 1 -8 0.29 0.37
-2 1 -8 0.29 0.25
2 -1 8 0.63 0.48
2 -1 8 -0.06 0.19
2 -1 8 0.3 0.19
-3 1 -8 1.95 0.53
3 -1 8 0.68 0.51
-4 1 -8 15.29 1.18
-4 1 -8 14.58 1.35
4 -1 8 12.78 1.1
-5 1 -8 29.35 1.89
-5 1 -8 31.66 1.89
5 -1 8 32.54 1.63
-6 1 -8 149.38 5.19
-6 1 -8 144.8 4.33
-6 1 -8 147.72 4.98
-6 1 -8 152.98 4.33
6 -1 8 147.98 4.85
-7 1 -8 1.18 0.98
-7 1 -8 2.27 0.47
-7 1 -8 2.79 0.53
7 -1 8 1.96 0.4
7 -1 8 2.69 0.7
7 -1 8 1.96 0.36
-8 1 -8 0.48 0.61
-8 1 -8 0.9 0.72
8 -1 8 0.79 0.58
8 -1 8 0.53 0.58
8 -1 8 1.34 0.68
8 -1 8 1.2 1.14
5 0 -8 1.51 1.34
5 0 -8 3.11 1.32
-5 0 8 4.49 1.44
-5 0 8 -0.6 1.3
-5 0 8 2.17 0.34
4 0 -8 4.46 1.16
4 0 -8 4.29 1.13
-4 0 8 4.84 0.79
-4 0 8 5.59 0.57
-4 0 8 4.76 1.13
-4 0 8 4.26 1.2
3 0 -8 1.95 0.87
3 0 -8 2.83 0.87
-3 0 8 3.1 0.41
-3 0 8 1.82 0.53
-3 0 8 2.45 0.87
2 0 -8 20.57 1.51
-2 0 8 22.8 0.98
-2 0 8 24.68 1.61
-2 0 8 21.14 1.54
-2 0 8 22.66 1.21
1 0 -8 1.33 0.57
1 0 -8 2.21 0.58
-1 0 8 1.61 0.6
-1 0 8 1.38 0.38
-1 0 8 2.2 0.47
-1 0 8 2.37 0.6
-1 0 8 2.24 0.53
0 0 -8 21.83 1.19
0 0 8 22.91 1.14
0 0 8 22.39 1.05
0 0 8 23.89 1.2
0 0 8 23.43 1.28
0 0 8 23.99 1.2
-1 0 -8 34.77 1.42
-1 0 -8 35.76 1.35
1 0 8 34.7 1.41
1 0 8 34.55 1.45
1 0 8 34.34 1.29
1 0 8 32.96 1.55
1 0 8 33.75 1.29
-2 0 -8 24.85 1.47
-2 0 -8 26.84 0.89
-2 0 -8 26.84 1.25
-2 0 -8 26.74 0.89
2 0 8 26 1.35
2 0 8 28.05 1.23
-3 0 -8 0.27 0.44
-3 0 -8 0.5 0.53
3 0 8 0.19 0.47
3 0 8 0.03 0.45
-4 0 -8 1.12 0.59
-4 0 -8 0.47 0.49
4 0 8 0.91 0.51
-5 0 -8 8.43 1.06
-5 0 -8 7.76 0.95
5 0 8 8.08 0.92
-6 0 -8 136.37 3.98
-6 0 -8 147.42 4.87
-6 0 -8 141.14 4.73
-6 0 -8 137.11 3.97
6 0 8 137.12 4.53
-7 0 -8 15.05 0.94
-7 0 -8 17.98 1.69
7 0 8 14.17 0.71
7 0 8 14.93 0.76
7 0 8 14.48 1.64
7 0 8 16.04 1.18
-8 0 -8 -0.52 0.66
-8 0 -8 0.57 0.65
8 0 8 0.93 0.93
8 0 8 -0.31 0.5
5 -1 -8 9.6 1.56
5 -1 -8 6.23 1.41
-5 1 8 7.28 1.56
-5 1 8 7.43 0.78
-5 1 8 10.32 1.64
4 -1 -8 17.07 1.82
4 -1 -8 15.43 1.83
-4 1 8 17.1 0.93
-4 1 8 13.79 1.8
3 -1 -8 8.88 1.17
3 -1 -8 8.03 1.11
-3 1 8 7.58 0.7
-3 1 8 8.16 1.11
-3 1 8 6.88 0.81
2 -1 -8 21.56 1.29
2 -1 -8 24.42 1.6
2 -1 -8 22.95 1.52
-2 1 8 22.21 1.05
-2 1 8 22.69 1.58
-2 1 8 23.67 1.56
1 -1 -8 24.4 1.42
1 -1 -8 25.93 1.41
1 -1 -8 24.04 1.34
-1 1 8 25.71 1.38
-1 1 8 23.4 1.19
-1 1 8 24.39 1.41
-1 1 8 23.74 1.1
0 -1 -8 33.26 1.46
0 -1 -8 35.08 1.45
0 -1 -8 34.3 1.74
0 1 8 34.74 1.5
0 1 8 33.2 1.48
0 1 8 34.97 1.46
0 1 8 31.79 1.33
0 1 8 35.21 1.53
-1 -1 -8 0.1 0.28
-1 -1 -8 0.11 0.36
1 1 8 -0.36 0.25
1 1 8 -0.01 0.36
1 1 8 0.18 0.4
1 1 8 0.17 0.36
-2 -1 -8 3.65 0.27
-2 -1 -8 2.43 0.54
-2 -1 -8 3.85 0.27
-2 -1 -8 3.49 0.54
2 1 8 3.24 0.51
2 1 8 3.58 0.53
-3 -1 -8 28.18 1.38
-3 -1 -8 28.54 1.46
3 1 8 27.22 1.35
3 1 8 26.04 1.3
-4 -1 -8 7.45 0.96
-4 -1 -8 8.05 0.92
4 1 8 8.29 0.85
4 1 8 7.55 0.92
-5 -1 -8 0.37 0.57
-5 -1 -8 1.01 0.58
5 1 8 1.32 0.52
-6 -1 -8 3.21 0.33
-6 -1 -8 3.6 0.34
-6 -1 -8 4.25 0.8
-6 -1 -8 3.14 0.78
-7 -1 -8 0.11 0.4
7 1 8 0.15 0.29
7 1 8 1.04 0.33
7 1 8 0.86 0.74
-8 -1 -8 5.44 0.97
8 1 8 6.82 1.11
8 1 8 5.82 0.69
-9 -1 -8 2.68 0.88
9 1 8 2.27 1.19
9 1 8 2.53 0.82
9 1 8 3.5 1.18
5 -2 -8 -0.62 1.21
5 -2 -8 -0.15 1.18
-5 2 8 1.53 1.38
-5 2 8 0.25 1.23
4 -2 -8 1.82 1.03
4 -2 -8 0.63 1.01
-4 2 8 2.19 1.1
-4 2 8 -1.26 1.12
3 -2 -8 0.72 0.78
3 -2 -8 -0.71 0.56
3 -2 -8 0.1 0.79
-3 2 8 0.43 0.5
-3 2 8 1.67 0.79
2 -2 -8 2.15 0.72
2 -2 -8 2.32 0.74
2 -2 -8 3.13 0.61
-2 2 8 3.11 0.5
-2 2 8 3.21 0.59
-2 2 8 1.99 0.7
-2 2 8 2.03 0.74
1 -2 -8 50.9 2
1 -2 -8 51.55 2.12
1 -2 -8 52.01 2.15
-1 2 8 48.54 2.1
-1 2 8 50.67 2.09
-1 2 8 50.77 1.85
0 -2 -8 60.41 2.09
0 -2 -8 53.98 2.11
0 -2 -8 54.05 2.08
0 2 8 61.85 2.13
0 2 8 56.28 2.08
0 2 8 52.88 2.01
0 2 8 55.94 2.11
-1 -2 -8 6.02 0.62
-1 -2 -8 5.66 0.71
-1 -2 -8 6.16 0.64
1 2 8 5.59 0.61
1 2 8 6.47 0.63
1 2 8 7.88 0.82
-2 -2 -8 17.59 1.08
-2 -2 -8 16.53 0.7
-2 -2 -8 17.01 1.08
-2 -2 -8 16.93 0.69
2 2 8 16.82 0.62
2 2 8 16.58 0.62
2 2 8 15.54 0.94
2 2 8 17.48 1.03
-3 -2 -8 0.04 0.42
-3 -2 -8 0.46 0.42
3 2 8 -0.1 0.4
-4 -2 -8 31.44 1.54
-4 -2 -8 30.27 1.52
4 2 8 30.11 1.44
-5 -2 -8 6.29 0.96
-5 -2 -8 6.41 0.78
5 2 8 7.06 0.73
-6 -2 -8 0.61 0.63
-6 -2 -8 -0.57 0.63
-6 -2 -8 0.33 0.26
-6 -2 -8 0.05 0.25
6 2 8 0 0.39
6 2 8 -0.78 0.52
-7 -2 -8 1.72 0.75
-7 -2 -8 0.94 0.46
7 2 8 1.29 0.74
7 2 8 0.68 0.36
7 2 8 0.96 0.39
8 2 8 4.48 0.82
8 2 8 4.63 0.71
8 2 8 4.02 0.99
-9 -2 -8 6.37 0.99
-9 -2 -8 6.76 1
9 2 8 6.35 1.25
9 2 8 4.69 0.9
5 -3 -8 12.97 1.67
5 -3 -8 9.61 1.62
-5 3 8 8.79 1.65
-5 3 8 9.69 1.67
4 -3 -8 4.76 1.2
4 -3 -8 5.03 0.68
-4 3 8 5.03 1.22
3 -3 -8 6.61 1.07
3 -3 -8 6.45 0.75
3 -3 -8 5.27 1.06
-3 3 8 7.58 0.88
2 -3 -8 10.39 1.26
2 -3 -8 11.29 1.49
2 -3 -8 7.81 0.81
-2 3 8 11.11 1.02
-2 3 8 11.83 1.34
-2 3 8 11.3 1.3
1 -3 -8 8 0.8
1 -3 -8 9.18 1.01
1 -3 -8 9.12 1.04
-1 3 8 8.47 0.9
-1 3 8 7.78 1.03
0 -3 -8 0.78 0.43
0 -3 -8 1.18 0.58
0 3 8 0.35 0.4
0 3 8 0.51 0.45
-1 -3 -8 16.28 0.94
-1 -3 -8 17.47 0.96
-1 -3 -8 17.2 1.13
1 3 8 15.49 0.92
1 3 8 16.25 0.97
1 3 8 17.84 0.96
-2 -3 -8 46.24 1.76
-2 -3 -8 45.78 2.02
-2 -3 -8 47.11 1.61
-2 -3 -8 47.68 1.87
2 3 8 44.49 1.76
2 3 8 43.92 1.56
2 3 8 44.25 1.56
-3 -3 -8 0.58 0.22
-3 -3 -8 0.78 0.4
-3 -3 -8 0.83 0.22
-3 -3 -8 1 0.41
3 3 8 0.83 0.18
3 3 8 0.79 0.19
3 3 8 1.16 0.47
-4 -3 -8 10 0.47
-4 -3 -8 8.84 0.79
-4 -3 -8 10.17 1
4 3 8 9.91 0.88
-5 -3 -8 41.68 1.77
-5 -3 -8 40.27 1.37
-5 -3 -8 41.1 1.38
5 3 8 40.16 1.77
5 3 8 41.76 1.29
5 3 8 40.06 1.28
-6 -3 -8 14.33 1.34
-6 -3 -8 16.71 0.88
-6 -3 -8 15.22 0.87
6 3 8 16.12 0.82
6 3 8 15.36 1.14
6 3 8 15.79 1.11
6 3 8 14.56 0.81
-7 -3 -8 2.69 0.53
7 3 8 2.2 0.54
7 3 8 2.28 0.49
7 3 8 2.97 0.74
-8 -3 -8 21.4 1.5
-8 -3 -8 25.23 1.89
-8 -3 -8 20.42 1.45
8 3 8 22.34 1.71
8 3 8 20.57 1.4
-9 -3 -8 2.17 1.24
-9 -3 -8 2.48 0.88
-9 -3 -8 3.19 1.04
9 3 8 6.4 1.18
9 3 8 1.45 0.85
9 3 8 3.43 0.91
5 -4 -8 0.25 1.36
5 -4 -8 -1.84 1.31
-5 4 8 -1.91 1.44
-5 4 8 -0.49 1.41
4 -4 -8 7.04 1.29
4 -4 -8 5.28 0.79
4 -4 -8 3.06 1.18
-4 4 8 6.09 1.35
-4 4 8 5.36 1.28
3 -4 -8 5.12 0.77
3 -4 -8 4.04 1.05
3 -4 -8 4.85 1.06
-3 4 8 4.86 0.8
2 -4 -8 3.09 0.66
2 -4 -8 2.08 0.78
2 -4 -8 1.48 0.89
-2 4 8 2.93 0.83
1 -4 -8 7.57 0.92
1 -4 -8 9.78 1.1
1 -4 -8 7.91 0.83
-1 4 8 8.36 0.96
-1 4 8 9.7 1.16
-1 4 8 8.19 1.09
0 -4 -8 14.88 1.19
0 -4 -8 19.46 1.22
0 4 8 21.78 1.25
0 4 8 18.44 1.17
0 4 8 21.42 1.29
-1 -4 -8 8.46 0.84
1 4 8 10 0.82
1 4 8 9.42 0.87
1 4 8 8.72 0.86
-2 -4 -8 6.43 0.72
-2 -4 -8 6.29 0.65
-2 -4 -8 6.64 0.84
-2 -4 -8 7.79 0.72
2 4 8 7.95 0.75
2 4 8 7.89 0.72
2 4 8 8.63 0.85
2 4 8 7.05 0.77
-3 -4 -8 2.94 0.41
-3 -4 -8 2.57 0.59
-3 -4 -8 3.04 0.42
3 4 8 3.11 0.41
3 4 8 3.62 0.58
-4 -4 -8 2.37 0.43
-4 -4 -8 2.37 0.38
-4 -4 -8 2.37 0.61
4 4 8 2.74 0.58
4 4 8 1.99 0.36
4 4 8 2.3 0.38
-5 -4 -8 36.99 2.26
-5 -4 -8 39.8 1.49
5 4 8 37.59 1.71
5 4 8 38.38 1.49
5 4 8 39.21 1.47
-6 -4 -8 3.48 0.55
6 4 8 3.57 0.68
6 4 8 4.22 0.54
-7 -4 -8 15.35 1.17
-7 -4 -8 15.07 1.18
7 4 8 15.47 1.15
7 4 8 16.49 1.37
7 4 8 14.48 1.16
7 4 8 17.31 1.21
-8 -4 -8 0.58 0.66
-8 -4 -8 0.12 0.7
-8 -4 -8 -0.81 0.91
8 4 8 0.22 0.68
8 4 8 0.02 0.72
-9 -4 -8 1.5 0.87
-9 -4 -8 -0.81 1.16
-9 -4 -8 1.07 0.92
9 4 8 0.42 0.89
9 4 8 -0.26 0.88
9 4 8 0.83 0.92
5 -5 -8 15.89 2.05
5 -5 -8 15.25 1.97
-5 5 8 15.86 2.1
4 -5 -8 35.39 2.66
4 -5 -8 31.91 2.6
4 -5 -8 35.31 2.48
-4 5 8 35.17 2.63
3 -5 -8 3.27 0.85
3 -5 -8 2.6 1.02
3 -5 -8 2.54 1.05
-3 5 8 3.12 0.76
-3 5 8 2.85 1.03
2 -5 -8 20.88 1.78
2 -5 -8 17.24 1.7
-2 5 8 21.74 1.41
-2 5 8 22.72 1.67
1 -5 -8 4.86 0.82
1 -5 -8 4.23 0.81
-1 5 8 1.72 0.6
-1 5 8 3.01 0.79
-1 5 8 3.69 0.77
0 -5 -8 22.97 1.39
0 -5 -8 21.6 1.42
0 5 8 22.2 1.47
0 5 8 22.3 1.41
0 5 8 21.61 1.31
-1 -5 -8 4.02 0.63
1 5 8 5.5 0.7
1 5 8 4.67 0.71
1 5 8 5.18 0.69
-2 -5 -8 2.58 0.31
-2 -5 -8 2.54 0.51
-2 -5 -8 2.36 0.59
2 5 8 2.29 0.58
2 5 8 3.78 0.58
2 5 8 2.23 0.56
2 5 8 2.76 0.54
-3 -5 -8 75.12 2.86
-3 -5 -8 79.23 2.44
-3 -5 -8 74.16 2.68
-3 -5 -8 87.79 2.69
3 5 8 76.28 2.76
3 5 8 77.63 2.71
3 5 8 79.58 2.89
3 5 8 78.1 2.66
-4 -5 -8 9.93 1.07
-4 -5 -8 11.83 0.83
-4 -5 -8 11.02 0.89
4 5 8 9.15 0.85
4 5 8 9.2 0.87
-5 -5 -8 5.19 0.62
5 5 8 4.95 0.73
5 5 8 5.34 0.62
5 5 8 5.41 0.64
-6 -5 -8 -0.09 0.48
-6 -5 -8 0.73 0.48
6 5 8 0.12 0.44
6 5 8 0.12 0.52
6 5 8 -0.96 0.46
6 5 8 -0.51 0.46
-7 -5 -8 -0.46 0.57
-7 -5 -8 -0.36 0.96
-7 -5 -8 1.05 0.79
7 5 8 1.97 0.55
7 5 8 2.12 0.66
7 5 8 0.85 0.58
7 5 8 0.33 0.61
-8 -5 -8 12.21 1.42
-8 -5 -8 12.98 1.45
-8 -5 -8 12.42 1.41
8 5 8 13.14 1.48
8 5 8 10.62 1.14
-9 -5 -8 2.28 1.25
-9 -5 -8 1.72 1
-9 -5 -8 2.99 1.05
9 5 8 3.58 1.06
9 5 8 1.08 1.05
9 5 8 2.73 0.95
4 -6 -8 1.18 1.3
4 -6 -8 1.44 1.35
-4 6 8 1.15 1.37
-4 6 8 0.57 1.28
3 -6 -8 15.99 1.96
3 -6 -8 18.75 2.11
-3 6 8 13.75 1.44
-3 6 8 15.96 1.94
-3 6 8 18.83 2.03
2 -6 -8 0.52 0.89
2 -6 -8 1.11 0.87
-2 6 8 -0.17 0.61
1 -6 -8 -0.34 0.71
1 -6 -8 -0.29 0.73
-1 6 8 0.51 0.56
-1 6 8 1.29 0.74
0 -6 -8 39.45 1.99
0 -6 -8 40.88 2.11
0 6 8 44.01 2.09
0 6 8 42.58 1.92
0 6 8 38.13 2.11
-1 -6 -8 3.19 0.68
-1 -6 -8 3.21 0.69
1 6 8 2.88 0.69
1 6 8 1.62 0.59
1 6 8 2.51 0.68
-2 -6 -8 5.52 0.75
2 6 8 5.73 0.77
2 6 8 5.61 0.77
2 6 8 4.9 0.72
-3 -6 -8 1.4 0.54
-3 -6 -8 1.21 0.54
-3 -6 -8 2.36 0.75
3 6 8 1.97 0.6
3 6 8 1.92 0.56
3 6 8 2.02 0.6
3 6 8 1.22 0.58
-4 -6 -8 8.99 1
-4 -6 -8 6.96 0.92
-4 -6 -8 6.14 0.96
4 6 8 7.02 0.79
4 6 8 6.86 0.8
4 6 8 8.21 1.03
-5 -6 -8 3.85 0.66
-5 -6 -8 3.68 0.68
-5 -6 -8 3.04 0.72
5 6 8 3.42 0.68
5 6 8 3.66 0.68
5 6 8 3.09 0.68
-6 -6 -8 6.39 0.94
-6 -6 -8 6.68 0.82
6 6 8 6.12 0.82
6 6 8 6.53 0.83
6 6 8 9.07 1.12
6 6 8 5.28 0.8
-7 -6 -8 2.65 0.79
-7 -6 -8 3.18 0.93
-7 -6 -8 1.69 0.74
7 6 8 3.51 0.74
7 6 8 2.79 0.8
-8 -6 -8 5.65 1.04
-8 -6 -8 8.02 1.07
-8 -6 -8 5.66 1.22
8 6 8 7.37 1.12
8 6 8 6.71 0.89
8 6 8 7.13 1.1
8 6 8 5.11 0.85
-9 -6 -8 1.13 1.33
-9 -6 -8 1.98 1.11
-9 -6 -8 1.24 1.05
9 6 8 3.19 1.17
9 6 8 1.23 0.96
9 6 8 1.34 1.16
4 -7 -8 3.03 0.93
4 -7 -8 4.56 1.59
4 -7 -8 4.85 1.59
-4 7 8 4.53 1.61
-4 7 8 4.5 1.74
3 -7 -8 13.4 1.74
3 -7 -8 16.65 2.22
-3 7 8 17.63 1.63
-3 7 8 22.29 2.26
-3 7 8 16.51 2.24
2 -7 -8 1.44 1
2 -7 -8 2.77 1.25
2 -7 -8 2.54 0.52
-2 7 8 1.61 0.71
-2 7 8 3.43 1.1
1 -7 -8 3.99 1.02
1 -7 -8 3.99 1.02
1 -7 -8 3.17 0.44
-1 7 8 4.06 1.03
-1 7 8 2.59 0.75
0 -7 -8 3.12 0.88
0 -7 -8 2.72 0.87
0 -7 -8 2.34 0.27
0 7 8 3.46 0.9
0 7 8 3.65 0.72
-1 -7 -8 22.16 1.53
1 7 8 20.74 1.61
1 7 8 24.32 1.6
1 7 8 21.21 1.58
-2 -7 -8 4.87 0.84
2 7 8 2.03 0.78
2 7 8 5.27 0.78
2 7 8 3.97 0.81
-3 -7 -8 -0.69 0.5
-3 -7 -8 0.29 0.59
3 7 8 -0.46 0.46
3 7 8 0.16 0.58
3 7 8 0.2 0.52
3 7 8 -0.33 0.76
-4 -7 -8 5 0.78
-4 -7 -8 5.6 0.8
-4 -7 -8 4.87 0.84
4 7 8 5.37 0.75
4 7 8 4.21 0.78
4 7 8 4.05 0.79
-5 -7 -8 -0.17 0.69
-5 -7 -8 1.15 0.67
5 7 8 0.05 0.65
5 7 8 0.42 0.61
5 7 8 -0.29 0.55
-6 -7 -8 28.81 1.77
-6 -7 -8 28.33 1.8
6 7 8 27.92 1.3
6 7 8 27.26 1.51
6 7 8 29.83 1.8
-7 -7 -8 16.4 1.62
-7 -7 -8 14.89 1.65
-7 -7 -8 15.15 1.66
7 7 8 15.73 1.22
7 7 8 16.53 1.67
7 7 8 12.76 1.59
7 7 8 19.25 1.18
-8 -7 -8 7.79 1.21
-8 -7 -8 3.71 1
-8 -7 -8 5.99 1.31
8 7 8 6.61 0.94
8 7 8 4.84 1.12
8 7 8 5.03 0.82
8 7 8 4.92 1.19
3 -8 -8 4.82 1.46
3 -8 -8 1.89 1.41
-3 8 8 2.87 0.99
-3 8 8 -2.26 1.4
-3 8 8 2.92 1.54
2 -8 -8 3.27 0.6
2 -8 -8 2.69 1.23
2 -8 -8 4.27 1.25
-2 8 8 3.47 0.87
-2 8 8 2.9 1.33
-2 8 8 5.5 1.38
1 -8 -8 12.31 0.78
1 -8 -8 10.5 2.31
1 -8 -8 9.95 1.34
-1 8 8 13.43 1.4
-1 8 8 15.3 2.06
0 -8 -8 3.19 0.99
0 -8 -8 4.33 1.08
0 8 8 3.35 0.79
-1 -8 -8 16.14 1.72
1 8 8 20.43 1.45
-2 -8 -8 13.78 1.42
-2 -8 -8 10.97 1.49
2 8 8 10.14 1.18
2 8 8 8.72 1.13
-3 -8 -8 -0.07 0.74
-3 -8 -8 -0.67 0.75
3 8 8 0.67 0.74
3 8 8 -0.05 0.57
-4 -8 -8 49.03 2.38
-4 -8 -8 43.58 2.32
4 8 8 50.2 2.32
4 8 8 47.55 2.07
-5 -8 -8 1.24 0.77
-5 -8 -8 2.48 0.87
5 8 8 1.01 0.61
5 8 8 0.12 0.93
5 8 8 1 0.83
-6 -8 -8 1.43 0.86
-6 -8 -8 4.33 1
-6 -8 -8 2.72 0.87
6 8 8 4.53 0.8
6 8 8 4.33 1
6 8 8 3.17 0.98
-7 -8 -8 5.82 1.17
-7 -8 -8 7.29 1.13
-7 -8 -8 4.38 1.11
7 8 8 8.2 0.99
7 8 8 8.43 0.96
7 8 8 5.22 1.22
7 8 8 7.22 1.2
-8 -8 -8 -0.07 1.17
-8 -8 -8 0.24 1.13
-8 -8 -8 1.93 1.16
8 8 8 0.7 1.2
8 8 8 -0.56 0.63
8 8 8 1.86 1.08
2 -9 -8 3.15 1.38
2 -9 -8 0.61 1.4
2 -9 -8 0.3 0.53
-2 9 8 0.29 1.5
-2 9 8 -0.02 1.43
-2 9 8 1.92 0.93
1 -9 -8 1.97 1.25
1 -9 -8 0.25 1.14
-1 9 8 0.22 1.25
-1 9 8 -0.43 0.77
-1 9 8 0.96 1.38
0 -9 -8 1.98 1.08
0 -9 -8 3.09 1.2
0 9 8 5.52 1.28
0 9 8 4.06 1.2
0 9 8 1.74 0.8
-1 -9 -8 11.12 1.4
1 9 8 14.54 1.81
1 9 8 12.43 1.38
-2 -9 -8 2.88 1.03
-2 -9 -8 2.49 0.96
2 9 8 0.03 1.08
2 9 8 0.89 0.7
-3 -9 -8 24.72 1.96
-3 -9 -8 24.16 1.91
3 9 8 21.59 1.98
3 9 8 24.69 1.65
-4 -9 -8 6.53 1.19
-4 -9 -8 4.34 1.03
4 9 8 5.58 1.14
4 9 8 5.25 0.81
-5 -9 -8 3.54 1.09
-5 -9 -8 6.55 0.98
-5 -9 -8 5.47 1.11
5 9 8 4.3 0.81
5 9 8 2.78 1.07
-6 -9 -8 0.06 0.86
-6 -9 -8 -0.34 1.02
-6 -9 -8 1.28 0.96
6 9 8 0.69 0.63
6 9 8 -0.51 1.04
-7 -9 -8 4.23 1.38
-7 -9 -8 3.66 1.17
-7 -9 -8 7.01 1.33
7 9 8 2.77 1.34
7 9 8 4.78 0.58
7 9 8 5.86 0.87
1 -10 -8 23.84 2.87
1 -10 -8 26.54 2.69
-1 10 8 24.6 2.75
-1 10 8 25.1 2.89
-1 10 8 24.18 2.03
0 -10 -8 6.05 1.48
0 -10 -8 5.29 1.49
0 10 8 6.86 1.63
0 10 8 6.92 1.12
0 10 8 4.82 1.52
-1 -10 -8 2.9 1.25
1 10 8 7.18 1.52
1 10 8 3.41 1.36
1 10 8 4.54 0.98
-2 -10 -8 2.43 1.24
-2 -10 -8 2.82 1.18
2 10 8 2.22 0.88
2 10 8 3.5 1.33
2 10 8 6.74 1.49
-3 -10 -8 10.05 2.09
-3 -10 -8 6.31 1.27
3 10 8 8.11 1.05
3 10 8 8.41 1.43
3 10 8 9.4 1.5
-4 -10 -8 1.69 1.05
4 10 8 1.56 1.19
4 10 8 2.18 0.73
4 10 8 3.67 1.21
-5 -10 -8 3.2 1.21
-5 -10 -8 1.36 0.89
5 10 8 2.59 1.25
5 10 8 1.7 1.2
5 10 8 2.17 0.74
-6 -10 -8 1.26 1.02
-6 -10 -8 0.94 1.25
-6 -10 -8 -0.89 1.4
6 10 8 0.94 1.4
6 10 8 0.69 1.36
6 10 8 0.52 0.69
-1 -11 -8 8.7 1.74
1 11 8 4.47 1.8
1 11 8 8.6 1.3
1 11 8 6.33 1.84
-2 -11 -8 6.86 1.7
-2 -11 -8 4.86 1.51
2 11 8 5.92 1.15
2 11 8 6.34 1.83
2 11 8 3.74 1.68
-3 -11 -8 0.71 1.33
-3 -11 -8 -0.68 1.41
3 11 8 1.21 0.92
3 11 8 -0.31 1.48
3 11 8 -3.9 1.52
-4 -11 -8 1.66 1.53
-4 -11 -8 6.09 1.51
4 11 8 5.05 0.91
4 11 8 3.45 1.59
4 11 8 5.86 1.74
0 5 -9 19.2 1.99
0 5 -9 19.19 2.07
0 -5 9 21.8 2.01
0 -5 9 18.01 1.57
0 -5 9 21.66 2
-1 5 -9 0.98 0.95
-1 5 -9 1.9 1.37
-1 5 -9 -0.12 0.92
1 -5 9 2.25 0.96
1 -5 9 2 0.92
-2 5 -9 2.11 0.9
-2 5 -9 2.69 1.6
-2 5 -9 1.93 0.9
2 -5 9 2.23 0.85
2 4 -9 4.35 1.24
2 4 -9 4.51 1.37
-2 -4 9 4.61 0.9
-2 -4 9 4.03 1.25
-2 -4 9 4.48 1.21
1 4 -9 -0.37 0.88
1 4 -9 -1.55 0.94
-1 -4 9 0.03 1.02
-1 -4 9 -1.22 0.64
-1 -4 9 0.41 0.87
0 4 -9 1.66 0.9
0 4 -9 0.65 0.82
0 -4 9 1.22 0.89
0 -4 9 0.88 0.81
0 -4 9 1.06 0.73
-1 4 -9 0.61 0.71
-1 4 -9 0.08 1.06
-1 4 -9 -0.48 0.72
1 -4 9 0.08 0.64
1 -4 9 -0.67 0.66
-2 4 -9 6.63 0.9
-2 4 -9 4.35 0.78
-2 4 -9 5.47 1.28
2 -4 9 5.5 0.75
2 -4 9 5.38 0.93
-3 4 -9 0.25 0.52
-3 4 -9 0.11 1.15
-3 4 -9 -0.11 0.59
-3 4 -9 1.07 0.68
3 -4 9 -0.17 0.5
3 -4 9 -0.4 0.67
3 -4 9 -0.36 0.58
-4 4 -9 1.24 1.22
-4 4 -9 1.06 0.71
-4 4 -9 1.52 0.61
4 -4 9 0.4 0.46
-5 4 -9 0.96 0.78
-5 4 -9 -0.14 0.6
-5 4 -9 -0.61 0.86
5 -4 9 0.45 0.4
5 -4 9 -2.37 0.78
3 3 -9 -0.27 1.31
3 3 -9 0.21 1.18
-3 -3 9 0.29 0.5
-3 -3 9 -0.1 1.29
-3 -3 9 0.75 0.67
2 3 -9 2.81 1.06
2 3 -9 2.6 1.06
-2 -3 9 1.91 0.7
-2 -3 9 0.29 0.99
-2 -3 9 2.56 1.02
1 3 -9 10.74 1.22
1 3 -9 11.49 1.25
-1 -3 9 12.26 1.2
-1 -3 9 12.39 1.55
-1 -3 9 11.59 1.51
0 3 -9 11.11 1.36
0 3 -9 8.45 1.03
0 -3 9 9.36 1.23
0 -3 9 10.05 1.14
-1 3 -9 5.67 1.47
-1 3 -9 8.95 1.18
1 -3 9 9.06 1.23
1 -3 9 10.99 1.08
1 -3 9 11.51 1.2
-2 3 -9 5.2 0.96
-2 3 -9 8.34 0.93
-2 3 -9 4.36 1
2 -3 9 4.5 0.86
2 -3 9 5.19 0.59
2 -3 9 5.1 0.61
-3 3 -9 0.53 0.44
-3 3 -9 -0.72 0.48
-3 3 -9 -0.04 0.41
-3 3 -9 0.5 0.93
3 -3 9 -0.29 0.33
3 -3 9 0.49 0.6
3 -3 9 -0.59 0.29
-4 3 -9 2.22 1.09
-4 3 -9 0.38 0.66
-4 3 -9 0.69 0.38
4 -3 9 1.23 0.71
-5 3 -9 -0.16 1.09
-5 3 -9 1.48 0.37
-5 3 -9 1.52 0.37
-5 3 -9 0.43 0.79
5 -3 9 1.82 0.73
-6 3 -9 8.84 0.78
-6 3 -9 12.36 0.79
-6 3 -9 8.96 1.25
-6 3 -9 9.75 1.57
6 -3 9 10.01 1.15
4 2 -9 1.17 1.39
4 2 -9 -0.47 1.41
-4 -2 9 -0.22 1.39
-4 -2 9 -0.86 0.62
-4 -2 9 1.58 1.51
-4 -2 9 0.27 0.65
3 2 -9 0.23 1.02
3 2 -9 0.69 1.12
-3 -2 9 2.14 1.15
-3 -2 9 -0.39 0.61
2 2 -9 7.31 1.14
2 2 -9 7.4 1.18
-2 -2 9 8.05 1.07
-2 -2 9 10.06 1.12
-2 -2 9 7.48 0.93
-2 -2 9 6.71 1.1
1 2 -9 1.21 0.74
1 2 -9 0.69 0.74
-1 -2 9 1.59 0.72
-1 -2 9 1.48 0.63
-1 -2 9 0.82 0.44
0 2 -9 28.96 2.57
0 2 -9 32.98 1.75
0 -2 9 36.44 1.71
0 -2 9 34.86 1.74
0 -2 9 31.42 1.7
-1 2 -9 63.76 2.39
-1 2 -9 63.95 2.39
1 -2 9 64.56 2.57
1 -2 9 65.26 2.32
-2 2 -9 4.98 0.55
-2 2 -9 4.91 0.99
-2 2 -9 6.32 0.8
2 -2 9 5.19 0.61
2 -2 9 3.89 0.75
2 -2 9 5.35 0.59
-3 2 -9 2.41 0.84
-3 2 -9 1.72 0.57
-3 2 -9 1.9 0.33
-3 2 -9 1.64 0.28
3 -2 9 1.9 0.67
-4 2 -9 7.62 0.87
-4 2 -9 6.31 1.09
4 -2 9 6.63 0.92
-5 2 -9 1.64 0.8
-5 2 -9 0.16 0.93
5 -2 9 0.7 0.67
-6 2 -9 1.31 0.87
-6 2 -9 0.2 1.07
6 -2 9 -0.3 0.66
-7 2 -9 3.38 1.4
-7 2 -9 4.03 0.5
-7 2 -9 3.98 1.16
7 -2 9 4.03 0.89
4 1 -9 3.74 1.37
-4 -1 9 4.72 0.98
-4 -1 9 2.34 1.35
-4 -1 9 2.73 1.42
3 1 -9 8.69 1.34
3 1 -9 10.99 1.42
-3 -1 9 11.38 1.1
-3 -1 9 11.72 1.39
-3 -1 9 10.21 1.38
-3 -1 9 10 1.08
2 1 -9 26.3 1.91
2 1 -9 25.27 1.88
-2 -1 9 26.86 1.5
-2 -1 9 30.48 1.9
1 1 -9 34.78 1.85
1 1 -9 35.71 1.88
-1 -1 9 34.7 1.56
-1 -1 9 33.92 1.84
-1 -1 9 35.8 1.85
-1 -1 9 34.85 1.68
0 1 -9 1.08 0.53
0 1 -9 -0.41 0.51
0 -1 9 -0.24 0.49
0 -1 9 0.07 0.41
0 -1 9 1.31 0.6
0 -1 9 0.36 0.52
-1 1 -9 1.08 0.42
1 -1 9 1.19 0.57
1 -1 9 0.8 0.4
1 -1 9 0.64 0.4
-2 1 -9 0.63 0.45
-2 1 -9 0.77 0.71
-2 1 -9 1.47 0.32
-2 1 -9 1.6 0.32
2 -1 9 1.45 0.6
2 -1 9 1.11 0.2
-3 1 -9 21.56 1.27
-3 1 -9 22.51 1.6
3 -1 9 21.76 1.38
-4 1 -9 -0.12 0.57
-4 1 -9 -0.39 0.71
4 -1 9 -0.08 0.58
-5 1 -9 29.11 1.8
-5 1 -9 29.7 1.98
5 -1 9 30.22 1.66
-6 1 -9 -0.78 0.88
-6 1 -9 1.11 0.82
6 -1 9 0.72 0.68
-7 1 -9 3.65 1.09
-7 1 -9 4.6 1.17
7 -1 9 5.66 0.9
4 0 -9 3.36 1.54
4 0 -9 2.41 1.26
-4 0 9 1.27 1.28
-4 0 9 0.58 0.74
-4 0 9 4.03 1.32
-4 0 9 2.55 0.4
3 0 -9 8.03 1.27
3 0 -9 9.32 1.34
-3 0 9 9.88 1.07
-3 0 9 11.24 1.37
-3 0 9 8.93 1.33
-3 0 9 11.63 0.75
2 0 -9 4.27 0.9
2 0 -9 3.4 0.89
-2 0 9 3.96 0.62
-2 0 9 3.55 0.49
-2 0 9 5.01 0.91
1 0 -9 2.75 0.73
1 0 -9 1.68 0.65
-1 0 9 1.89 0.66
-1 0 9 2.43 0.46
-1 0 9 2.25 0.59
-1 0 9 3.6 0.71
0 0 -9 6.82 0.91
0 0 -9 4.11 0.63
0 0 9 4.3 0.61
0 0 9 5.15 0.69
0 0 9 6.73 0.8
0 0 9 4.53 0.55
0 0 9 5.46 0.67
1 0 9 2.87 0.41
1 0 9 2.88 0.55
1 0 9 3.03 0.53
1 0 9 2.47 0.59
1 0 9 3.14 0.43
-2 0 -9 -0.04 0.19
-2 0 -9 0.13 0.42
-2 0 -9 0.03 0.18
2 0 9 0.34 0.48
2 0 9 0.23 0.5
-3 0 -9 17.57 1.18
-3 0 -9 16.17 1.61
3 0 9 17.08 1.2
-4 0 -9 -0.03 0.56
-4 0 -9 -0.63 0.61
4 0 9 1 0.57
-5 0 -9 1.1 0.69
-5 0 -9 -0.13 0.71
5 0 9 1.58 0.62
-6 0 -9 -0.75 0.77
-6 0 -9 1.18 0.79
6 0 9 0.46 0.62
-7 0 -9 32.42 2.16
-7 0 -9 25.33 2.07
7 0 9 29.73 1.65
-8 0 -9 1.35 0.38
-8 0 -9 -0.34 1.11
-8 0 -9 1.33 0.41
5 -1 -9 4.56 1.6
5 -1 -9 4.46 1.66
-5 1 9 2.29 1.01
-5 1 9 2.52 0.55
-5 1 9 2.86 1.71
4 -1 -9 1.89 2.03
4 -1 -9 1.93 1.14
-4 1 9 1.51 1.13
-4 1 9 1.14 0.48
-4 1 9 0.85 1.25
-4 1 9 1.45 0.74
3 -1 -9 1.83 0.96
3 -1 -9 1.12 0.94
-3 1 9 -0.07 0.88
-3 1 9 1.05 0.45
-3 1 9 0.69 0.97
2 -1 -9 0.35 0.74
2 -1 -9 2.2 0.98
-2 1 9 0.89 0.7
-2 1 9 0.86 0.53
-2 1 9 1.49 0.46
1 -1 -9 11.14 1.2
1 -1 -9 13.59 1.19
-1 1 9 11.38 0.83
-1 1 9 14.53 1.22
0 -1 -9 -0.05 0.44
0 1 9 0.64 0.42
0 1 9 0.48 0.47
0 1 9 1.07 0.45
0 1 9 0.7 0.5
-1 -1 -9 3.28 0.46
1 1 9 4.45 0.62
1 1 9 3.48 0.44
1 1 9 3.52 0.61
1 1 9 5.33 0.61
-2 -1 -9 8.39 0.88
-2 -1 -9 6.11 0.81
-2 -1 -9 8.56 0.43
-2 -1 -9 8.45 0.44
2 1 9 8.29 0.93
2 1 9 7.96 0.81
-3 -1 -9 114.09 3.79
-3 -1 -9 115.88 3.92
3 1 9 110.91 3.8
-4 -1 -9 2.74 0.71
-4 -1 -9 2.57 0.66
4 1 9 1.98 0.59
4 1 9 2.37 0.6
-5 -1 -9 6.43 0.9
-5 -1 -9 7.67 0.91
5 1 9 8.11 0.96
-6 -1 -9 32.5 1.89
-6 -1 -9 31.49 1.99
-7 -1 -9 0.55 0.91
-7 -1 -9 0.63 0.8
-8 -1 -9 2.06 1.14
-8 -1 -9 3.84 0.5
-8 -1 -9 4.18 0.49
8 1 9 3.48 1.1
5 -2 -9 1.92 1.45
5 -2 -9 -0.24 1.53
-5 2 9 0.6 1.85
-5 2 9 3.02 1.64
-5 2 9 1.23 0.61
4 -2 -9 1.35 1.84
4 -2 -9 0.38 1.13
-4 2 9 0.22 0.5
-4 2 9 0.6 1.2
-4 2 9 1.16 1.18
-4 2 9 1.14 0.75
3 -2 -9 0.47 0.91
3 -2 -9 -0.31 0.88
-3 2 9 0.66 0.62
-3 2 9 -0.13 0.46
-3 2 9 -0.6 0.91
2 -2 -9 4.17 0.87
2 -2 -9 3.79 0.86
-2 2 9 3.22 0.7
-2 2 9 2.2 0.79
-2 2 9 2.87 0.58
1 -2 -9 9.27 1.13
1 -2 -9 9.91 1.13
-1 2 9 10.59 0.98
-1 2 9 9.5 0.86
-1 2 9 7.23 0.86
0 -2 -9 61.2 2.35
0 -2 -9 68.19 2.4
0 2 9 62.05 2.25
0 2 9 64.36 2.41
0 2 9 63.11 2.39
-1 -2 -9 5.95 0.72
-1 -2 -9 6.03 0.7
1 2 9 7.28 0.81
1 2 9 8.14 0.84
1 2 9 6.67 0.7
-2 -2 -9 13.29 1.05
-2 -2 -9 12.74 1.01
-2 -2 -9 12.9 0.63
-2 -2 -9 12.31 0.62
2 2 9 12.21 0.5
2 2 9 12.28 0.93
2 2 9 12.59 0.51
-3 -2 -9 63.82 2.42
-3 -2 -9 61.7 2.38
3 2 9 59.41 2.51
-4 -2 -9 4.77 0.73
-4 -2 -9 4.15 0.73
4 2 9 4.72 0.71
-5 -2 -9 -0.47 0.53
-5 -2 -9 0.04 0.6
5 2 9 0.73 0.5
-6 -2 -9 0.94 0.73
-6 -2 -9 0.31 0.63
6 2 9 -0.27 0.49
-7 -2 -9 6 0.47
-7 -2 -9 5.76 1.06
-8 -2 -9 5.86 0.65
-8 -2 -9 7.74 1.23
8 2 9 6.71 0.63
8 2 9 6.13 1.15
8 2 9 6.57 0.57
5 -3 -9 0.28 1.52
5 -3 -9 1.59 1.59
-5 3 9 0.45 1.66
4 -3 -9 35.71 2.56
4 -3 -9 33.75 2.58
-4 3 9 37.66 2.78
-4 3 9 35.42 2.07
-4 3 9 40.4 2.78
3 -3 -9 12.02 1.37
3 -3 -9 13.83 1.76
-3 3 9 11.59 1.39
-3 3 9 11.83 1.28
2 -3 -9 1.54 0.8
2 -3 -9 0.58 0.74
-2 3 9 1.69 0.52
-2 3 9 0.42 0.71
-2 3 9 -0.06 0.64
1 -3 -9 -0.39 0.56
1 -3 -9 0.79 0.63
-1 3 9 -0.08 0.64
-1 3 9 0.46 0.46
-1 3 9 0.24 0.52
0 -3 -9 9.81 1.03
0 -3 -9 10.67 1
0 3 9 11.85 1.07
0 3 9 11.65 0.97
0 3 9 11.19 1.03
-1 -3 -9 -0.14 0.37
1 3 9 0.95 0.48
1 3 9 0.79 0.4
1 3 9 -0.14 0.39
1 3 9 0.13 0.46
-2 -3 -9 2.27 0.38
-2 -3 -9 1.68 0.53
-2 -3 -9 2.85 0.39
-2 -3 -9 2.17 0.51
2 3 9 2.52 0.36
2 3 9 1.79 0.55
2 3 9 1.97 0.34
2 3 9 1.53 0.55
-3 -3 -9 5.85 0.75
-3 -3 -9 5.58 0.39
-3 -3 -9 5.41 0.67
-3 -3 -9 6.26 0.4
3 3 9 6.12 0.86
-4 -3 -9 12.5 1.05
4 3 9 12.65 1.02
-5 -3 -9 0.9 0.5
-5 -3 -9 0.78 0.63
5 3 9 0.38 0.52
-6 -3 -9 0.21 0.19
-6 -3 -9 0.5 0.62
-6 -3 -9 -0.02 0.21
-6 -3 -9 -0.05 0.69
6 3 9 -0.26 0.5
-7 -3 -9 7.56 1.12
-7 -3 -9 8.57 0.73
7 3 9 7.6 1.19
7 3 9 8.87 0.56
7 3 9 7.36 0.51
7 3 9 9.26 1.05
-8 -3 -9 2.4 0.67
-8 -3 -9 1.9 0.61
-8 -3 -9 2.25 1.08
8 3 9 2.12 0.55
8 3 9 -0.86 0.9
8 3 9 0.88 0.49
-9 -3 -9 1.02 0.93
9 3 9 1.78 0.75
9 3 9 1.04 1.12
4 -4 -9 23.84 2.37
4 -4 -9 25.81 2.41
-4 4 9 24.85 1.84
-4 4 9 23.01 2.42
3 -4 -9 25.1 2.13
3 -4 -9 22.49 2.09
-3 4 9 21.94 2.04
-3 4 9 26.46 1.68
2 -4 -9 0.75 0.83
2 -4 -9 -0.2 0.8
-2 4 9 0.77 0.63
1 -4 -9 1.21 0.71
-1 4 9 1.06 0.68
-1 4 9 2.02 0.75
0 -4 -9 67.25 2.55
0 -4 -9 62.31 2.46
0 4 9 62.61 2.47
0 4 9 61.58 2.48
0 4 9 60.9 2.32
0 4 9 65.17 2.51
-1 -4 -9 13.37 1.02
1 4 9 15.8 1.06
1 4 9 15.65 1.07
1 4 9 14.37 1.16
1 4 9 15.02 1.07
-2 -4 -9 43.53 1.71
-2 -4 -9 43.21 1.95
-2 -4 -9 43.69 1.7
-2 -4 -9 49.04 1.73
2 4 9 41.88 1.98
2 4 9 43.17 1.69
2 4 9 44.22 1.96
-3 -4 -9 47.58 2.1
-3 -4 -9 47.24 1.65
-3 -4 -9 46.69 1.69
-3 -4 -9 43.26 1.76
3 4 9 41.32 2.13
3 4 9 48.63 2.06
3 4 9 46.25 1.61
3 4 9 45.05 1.6
-4 -4 -9 0.16 0.59
-4 -4 -9 0.5 0.29
-4 -4 -9 0.68 0.42
-4 -4 -9 0.12 0.28
4 4 9 -0.14 0.5
4 4 9 0.75 0.26
4 4 9 0.51 0.25
-5 -4 -9 0.09 0.28
-5 -4 -9 -0.01 0.27
-5 -4 -9 0.42 0.58
-5 -4 -9 0.08 0.45
5 4 9 -0.06 0.23
5 4 9 -0.01 0.25
5 4 9 -0.26 0.47
-6 -4 -9 14.94 0.88
6 4 9 15.26 0.81
6 4 9 16.35 1.21
6 4 9 16.81 0.84
-7 -4 -9 0.51 0.73
-7 -4 -9 1.64 0.52
-7 -4 -9 2.14 0.56
7 4 9 0.94 0.63
7 4 9 1.97 0.74
7 4 9 1.62 0.46
7 4 9 0.85 0.48
-8 -4 -9 11.81 1.22
-8 -4 -9 6.9 1.11
-8 -4 -9 8.55 1.31
8 4 9 7.52 1.11
8 4 9 6.2 0.83
8 4 9 8.3 1.11
-9 -4 -9 2.67 0.92
-9 -4 -9 1.45 0.86
-9 -4 -9 2.53 1.6
9 4 9 1.42 0.82
9 4 9 0.06 1.09
4 -5 -9 0.62 1.35
4 -5 -9 1.2 1.35
-4 5 9 0.91 1.51
-4 5 9 0.49 0.92
3 -5 -9 10.43 1.48
-3 5 9 12.26 1.49
-3 5 9 11.24 1.43
-3 5 9 11.11 1.44
2 -5 -9 0.8 0.9
2 -5 -9 0.04 0.82
-2 5 9 -0.24 0.61
-2 5 9 0.63 0.83
1 -5 -9 0.55 0.76
1 -5 -9 0.59 0.74
-1 5 9 0.93 0.72
-1 5 9 0.25 1.14
-1 5 9 1.14 0.62
0 -5 -9 3.16 0.71
0 -5 -9 3.78 0.73
0 5 9 2.65 0.86
0 5 9 3.7 0.75
-1 -5 -9 -0.34 0.5
-1 -5 -9 0.74 0.55
1 5 9 -0.69 0.47
1 5 9 -0.46 0.46
1 5 9 0.31 0.54
1 5 9 0.07 0.51
-2 -5 -9 125.51 4.85
-2 -5 -9 136.99 4.19
-2 -5 -9 138.66 4.41
-2 -5 -9 151.3 4.44
2 5 9 138.88 4.6
2 5 9 141.26 4.41
2 5 9 139.38 4.43
2 5 9 137.88 4.48
-3 -5 -9 94.06 2.97
-3 -5 -9 94.26 3.14
-3 -5 -9 90.66 3.46
3 5 9 96.86 3.3
3 5 9 97.47 3.43
3 5 9 95.53 3.1
3 5 9 93.55 3.12
-4 -5 -9 4.05 0.48
4 5 9 3.33 0.53
4 5 9 4.75 0.74
-5 -5 -9 2.33 0.51
5 5 9 2.41 0.62
5 5 9 1.4 0.45
-6 -5 -9 34.24 1.58
-6 -5 -9 36.67 1.57
6 5 9 33.77 1.54
6 5 9 35.76 1.75
-7 -5 -9 -0.35 0.84
-7 -5 -9 2.29 0.65
-7 -5 -9 1.33 0.58
7 5 9 0.8 0.65
7 5 9 0.65 0.62
7 5 9 0.24 0.76
-8 -5 -9 1.94 0.78
-8 -5 -9 1.2 0.74
-8 -5 -9 2.67 1.06
8 5 9 1.46 0.71
8 5 9 2.38 0.81
8 5 9 0.67 0.74
-9 -5 -9 5.44 1.03
-9 -5 -9 5.84 1.12
-9 -5 -9 5.9 1.71
9 5 9 5.29 1.06
9 5 9 2.44 0.97
9 5 9 5.68 1.2
4 -6 -9 4.85 1.65
4 -6 -9 5.89 1.66
-4 6 9 5.34 1.71
-4 6 9 8.91 1.82
-4 6 9 4.34 1.12
3 -6 -9 5.35 1.36
3 -6 -9 4.36 1.3
-3 6 9 4.42 1.39
-3 6 9 2.71 2.16
-3 6 9 4.46 0.99
2 -6 -9 0.62 0.93
2 -6 -9 0.32 1.01
-2 6 9 -1.13 0.64
-2 6 9 0.62 0.97
1 -6 -9 28.86 1.92
1 -6 -9 29.51 1.99
-1 6 9 27.31 1.69
-1 6 9 30.12 1.95
0 -6 -9 1.27 0.73
0 -6 -9 2.56 0.78
0 6 9 1.26 0.61
0 6 9 2.3 0.75
0 6 9 1.43 0.85
-1 -6 -9 1.32 0.67
-1 -6 -9 0.89 0.65
1 6 9 1.07 0.69
1 6 9 0.88 0.65
-2 -6 -9 258.07 7.67
-2 -6 -9 253.64 7.13
-2 -6 -9 259.08 7.71
2 6 9 264.05 7.66
2 6 9 217.7 8.03
2 6 9 252.95 7.68
2 6 9 252.25 7.6
-3 -6 -9 137.33 4.49
3 6 9 142.75 4.48
3 6 9 138.65 4.52
3 6 9 136.63 5.04
3 6 9 137.27 4.51
-4 -6 -9 30.93 1.56
-4 -6 -9 30.97 1.54
4 6 9 31.92 1.6
4 6 9 31.08 1.58
4 6 9 30.88 1.55
-5 -6 -9 2.48 0.58
-5 -6 -9 1.71 0.59
5 6 9 1.63 0.58
5 6 9 2.79 0.7
5 6 9 1.58 0.57
-6 -6 -9 4.53 0.73
-6 -6 -9 4.29 0.75
-6 -6 -9 4.37 0.92
6 6 9 5.93 0.82
6 6 9 4.47 0.7
6 6 9 5.96 0.77
-7 -6 -9 4.08 1.07
-7 -6 -9 4.5 0.83
-7 -6 -9 4.9 0.84
7 6 9 6.56 0.87
7 6 9 6.23 0.9
-8 -6 -9 12.5 1.48
-8 -6 -9 9.89 1.15
-8 -6 -9 13.43 1.54
8 6 9 11.56 1.47
8 6 9 12.96 1.61
8 6 9 11.96 1.56
8 6 9 11.94 1.23
3 -7 -9 0.78 1.38
3 -7 -9 0.31 1.3
3 -7 -9 -0.21 0.65
-3 7 9 -2.7 1.37
-3 7 9 -0.47 0.82
-3 7 9 -0.9 1.38
2 -7 -9 -0.15 1.05
2 -7 -9 -1.34 1.06
-2 7 9 0.75 1.14
-2 7 9 -0.46 0.75
-2 7 9 -0.14 1.06
1 -7 -9 12.39 1.39
1 -7 -9 8.89 1.28
-1 7 9 12.41 1.34
0 -7 -9 0.68 0.82
0 -7 -9 0.58 0.82
0 7 9 1.44 0.85
0 7 9 0.78 0.65
-1 -7 -9 12.03 1.4
-1 -7 -9 11.85 1.48
1 7 9 11.93 1.27
1 7 9 11.72 1.38
-2 -7 -9 26.53 1.69
2 7 9 24.19 1.63
2 7 9 25.42 1.62
2 7 9 25.52 1.72
3 7 9 11.72 1.33
3 7 9 11.68 1.21
3 7 9 10.08 1.21
3 7 9 9.67 1.03
-4 -7 -9 21.48 1.53
4 7 9 21.82 1.38
4 7 9 22.44 1.47
4 7 9 20.43 1.54
-5 -7 -9 12.03 1.24
-5 -7 -9 11.7 1.29
5 7 9 9.85 1.3
5 7 9 11.62 1.12
5 7 9 9.41 1.22
-6 -7 -9 0.56 0.68
-6 -7 -9 -0.34 0.77
-6 -7 -9 0.06 0.66
6 7 9 0.8 0.64
6 7 9 1.66 0.73
-7 -7 -9 0.73 0.79
-7 -7 -9 1.12 0.98
-7 -7 -9 1.25 0.83
7 7 9 0.74 0.62
7 7 9 1.57 0.87
7 7 9 0.51 0.78
-8 -7 -9 33.43 2.23
-8 -7 -9 33.86 2.47
-8 -7 -9 30.27 2.1
8 7 9 33.68 2.32
8 7 9 32.98 2.24
8 7 9 30.62 1.79
8 7 9 30.32 1.89
3 -8 -9 1.84 1.65
3 -8 -9 2.99 1.55
3 -8 -9 3.15 0.8
-3 8 9 3.89 3.14
-3 8 9 3.96 1.78
2 -8 -9 1.01 1.28
2 -8 -9 2.82 1.39
2 -8 -9 1.19 0.58
-2 8 9 0.3 1.27
-2 8 9 0.35 0.86
-2 8 9 0.26 1.38
1 -8 -9 0.68 0.39
1 -8 -9 1.05 1.06
1 -8 -9 -0.61 1.19
-1 8 9 -0.13 1.15
-1 8 9 1.09 1.13
-1 8 9 1.32 0.81
0 -8 -9 -0.44 0.91
0 -8 -9 -0.09 0.9
0 8 9 0.05 0.68
0 8 9 -0.43 0.96
-1 -8 -9 -0.21 0.84
-1 -8 -9 0.62 0.85
1 8 9 0.05 0.84
1 8 9 1.16 0.7
1 8 9 -0.44 0.86
-2 -8 -9 7.8 1.11
2 8 9 9.12 1.13
2 8 9 8.45 1.03
-3 -8 -9 11.28 1.49
-3 -8 -9 11.76 1.44
3 8 9 11.38 1.15
3 8 9 11.07 1.39
3 8 9 12.93 1.33
-4 -8 -9 10.05 1.31
-4 -8 -9 13.34 1.4
-4 -8 -9 14.15 1.53
4 8 9 11.7 1.11
4 8 9 11.2 1.2
-5 -8 -9 5.12 1.01
-5 -8 -9 5.47 0.92
-5 -8 -9 6.05 0.99
5 8 9 4.53 0.89
5 8 9 2.96 0.77
-6 -8 -9 -0.63 0.83
-6 -8 -9 -0.06 0.81
-6 -8 -9 1.68 0.8
6 8 9 -0.3 0.79
6 8 9 -0.59 0.58
6 8 9 -1.26 0.86
-7 -8 -9 7.23 1.25
-7 -8 -9 6.29 1.08
-7 -8 -9 7.2 1.18
7 8 9 6.29 1.22
7 8 9 7.67 1.04
7 8 9 5.29 1.06
-8 -8 -9 32.9 2.58
-8 -8 -9 30.22 2.44
-8 -8 -9 35.84 2.61
8 8 9 38 2.55
8 8 9 40.19 2.01
8 8 9 31.97 2.63
8 8 9 44.33 1.96
2 -9 -9 -1.01 1.52
2 -9 -9 2.25 1.46
2 -9 -9 0.15 0.56
-2 9 9 0.69 1.76
-2 9 9 1.31 1.75
-2 9 9 0.15 1.05
1 -9 -9 -3.01 1.16
1 -9 -9 -0.27 1.27
-1 9 9 -1.51 1.47
-1 9 9 0.01 0.85
-1 9 9 2.29 1.4
0 -9 -9 -0.72 1.04
0 -9 -9 0.23 1.12
0 9 9 2.92 1.23
0 9 9 1.45 1.23
0 9 9 0.44 0.79
-1 -9 -9 0.27 1.06
-1 -9 -9 -0.85 1.01
1 9 9 -0.29 1.03
1 9 9 -0.86 1.01
1 9 9 1.33 0.79
-2 -9 -9 3.02 1.04
2 9 9 2.41 1.08
2 9 9 3.33 0.89
-3 -9 -9 6.43 1.19
-3 -9 -9 7.54 1.19
3 9 9 8.21 1.26
3 9 9 9.94 1.28
3 9 9 9.2 1.11
-4 -9 -9 4.15 0.99
-4 -9 -9 3.14 0.98
-4 -9 -9 5.3 1.14
4 9 9 4.03 0.8
4 9 9 4.06 1.15
4 9 9 4.84 1.07
-5 -9 -9 8.95 1.17
-5 -9 -9 5.83 1.12
-5 -9 -9 8.04 1.25
5 9 9 6.34 1.15
5 9 9 7.72 1.27
5 9 9 6.87 0.96
-6 -9 -9 0.93 1
-6 -9 -9 -0.61 1.02
-6 -9 -9 0.3 0.93
6 9 9 -0.08 0.63
6 9 9 1.81 1.02
6 9 9 2.37 1.14
-7 -9 -9 0.49 1.12
-7 -9 -9 0.45 1.17
-7 -9 -9 0.43 1.12
7 9 9 0.55 1.29
7 9 9 0.47 0.7
7 9 9 0.56 1.12
0 -10 -9 10.55 1.74
0 -10 -9 12.9 1.84
0 10 9 14.9 1.95
0 10 9 13.04 1.44
0 10 9 11.13 1.85
-1 -10 -9 1.42 1.26
-1 -10 -9 2.44 1.28
1 10 9 0.44 1.33
1 10 9 -4.43 2.41
1 10 9 0.38 0.92
-2 -10 -9 9.87 1.51
2 10 9 13.45 1.71
2 10 9 13.03 1.61
2 10 9 15.94 1.84
-3 -10 -9 18.21 2.12
-3 -10 -9 21.08 2.38
3 10 9 17.44 2.38
3 10 9 16.75 1.66
3 10 9 19.25 1.88
-4 -10 -9 1.12 1.11
-4 -10 -9 1.18 1.24
4 10 9 -0.18 1.23
4 10 9 1.49 0.65
-5 -10 -9 5.98 1.44
-5 -10 -9 6.63 1.34
-5 -10 -9 7.11 1.23
5 10 9 8.01 1.04
5 10 9 7.19 1.49
-6 -10 -9 1.53 1.3
-6 -10 -9 1.07 1.1
-6 -10 -9 -0.47 1.14
6 10 9 1.3 0.76
6 10 9 1.81 1.37
-2 -11 -9 1.48 1.42
2 11 9 4.13 2.84
2 11 9 0.16 1.76
2 11 9 0.15 1.06
-3 -11 -9 0.2 1.37
-3 -11 -9 1.52 1.54
3 11 9 2.52 1.63
3 11 9 2.83 1.13
3 11 9 0.08 1.53
-4 -11 -9 1.7 1.35
-4 -11 -9 1.49 1.54
4 11 9 1.4 1.57
4 11 9 2.08 0.78
4 11 9 -1.64 2.51
-1 4 -10 0.39 1.95
-1 4 -10 -0.71 0.83
-1 4 -10 -0.63 0.84
1 -4 10 -0.69 0.77
-2 4 -10 0.43 0.72
-2 4 -10 -0.75 2.29
2 -4 10 -0.18 0.64
1 3 -10 -0.59 0.95
1 3 -10 0.35 1
-1 -3 10 1.52 0.98
-1 -3 10 1.31 1.02
-1 -3 10 0.93 0.72
0 3 -10 0.42 0.88
0 3 -10 1.42 0.85
0 -3 10 0.2 0.71
0 -3 10 1.39 0.79
0 -3 10 0.44 0.81
-1 3 -10 -0.52 0.73
-1 3 -10 -0.31 0.7
1 -3 10 -0.01 0.71
-2 3 -10 -1.22 0.57
-2 3 -10 2 1.14
2 -3 10 -0.76 0.65
2 -3 10 0.32 0.46
-3 3 -10 1.66 0.64
-3 3 -10 2.89 0.51
-3 3 -10 2.5 1.19
-3 3 -10 2.81 0.47
3 -3 10 4.72 0.93
-4 3 -10 10.73 1.35
-4 3 -10 11.94 1.57
-5 3 -10 -0.07 0.89
2 2 -10 -1.97 0.96
2 2 -10 0.56 1.06
-2 -2 10 -0.35 1.1
-2 -2 10 0.02 1.02
-2 -2 10 -0.13 0.67
1 2 -10 1.56 0.86
1 2 -10 2.43 0.89
-1 -2 10 1.13 0.87
-1 -2 10 1.96 0.73
-1 -2 10 0.52 0.82
0 2 -10 8.84 1.02
0 2 -10 9.59 1.3
0 -2 10 10.45 1.18
0 -2 10 10.72 1.24
-1 2 -10 0.55 0.62
1 -2 10 0.83 0.54
1 -2 10 -0.71 0.61
-2 2 -10 6.5 0.75
-2 2 -10 5.28 1.13
-2 2 -10 5.17 0.57
2 -2 10 4.76 0.56
2 -2 10 4.33 0.83
-3 2 -10 10.1 1.37
-3 2 -10 11.08 1.11
3 -2 10 9.64 1.09
-4 2 -10 18.39 1.98
-4 2 -10 16.04 1.67
4 -2 10 17.28 1.45
-5 2 -10 2.11 0.89
-5 2 -10 2.12 1.16
5 -2 10 0.49 0.71
-6 2 -10 1.84 1.08
-6 2 -10 1.78 1.38
3 1 -10 -1.44 1.15
3 1 -10 0.13 1.25
-3 -1 10 1.65 0.75
-3 -1 10 -0.25 0.61
-3 -1 10 -2.06 1.22
2 1 -10 7.15 1.19
2 1 -10 8.35 1.23
-2 -1 10 7.52 1.12
-2 -1 10 4.51 1.12
-2 -1 10 6.48 0.86
1 1 -10 1.5 0.81
1 1 -10 2.28 0.81
-1 -1 10 1.23 0.76
-1 -1 10 1.1 0.66
-1 -1 10 0.95 0.79
0 1 -10 39.72 1.92
0 1 -10 37.01 1.85
0 -1 10 37.27 1.83
0 -1 10 36.35 1.79
0 -1 10 36.52 1.87
-1 1 -10 0.05 0.49
-1 1 -10 1.05 0.8
1 -1 10 0.77 0.43
1 -1 10 0.49 0.44
1 -1 10 -0.46 0.58
-2 1 -10 0.83 0.32
-2 1 -10 1.15 0.55
-2 1 -10 1.91 0.89
2 -1 10 0.73 0.6
-3 1 -10 -0.69 0.83
-3 1 -10 -0.11 0.57
3 -1 10 -0.27 0.56
-4 1 -10 1.39 1.21
-4 1 -10 1.96 0.93
4 -1 10 1.59 0.69
-5 1 -10 0.28 0.98
-5 1 -10 1.92 0.8
5 -1 10 1.22 0.73
-6 1 -10 3.35 1.17
-6 1 -10 3.5 1.01
6 -1 10 3.77 0.83
-7 1 -10 6.89 1.44
-7 1 -10 8.51 1.37
7 -1 10 6.74 0.99
3 0 -10 -2 1.32
3 0 -10 -0.38 1.12
-3 0 10 1.15 1.22
-3 0 10 0.68 0.73
-3 0 10 0.14 0.44
2 0 -10 -0.24 0.92
2 0 -10 -0.77 0.84
-2 0 10 0.92 0.57
-2 0 10 -1.24 0.86
-2 0 10 0.53 0.6
-2 0 10 -0.15 0.8
-2 0 10 0.57 0.45
1 0 -10 29.55 1.85
1 0 -10 27.42 1.77
-1 0 10 28.35 1.54
-1 0 10 28.28 1.72
-1 0 10 26.83 1.3
-1 0 10 28.56 1.55
0 0 -10 0.95 0.6
0 0 -10 1.43 0.62
0 0 10 0.08 0.58
0 0 10 1.23 0.56
0 0 10 1.24 0.5
-1 0 -10 0.46 0.48
1 0 10 0.29 0.39
1 0 10 -0.01 0.36
1 0 10 1.09 0.62
1 0 10 0.84 0.51
-2 0 -10 3.27 0.65
-2 0 -10 4.2 0.4
-2 0 -10 4.47 0.41
-2 0 -10 4.25 0.89
2 0 10 4.65 0.71
2 0 10 3.88 0.74
-3 0 -10 3.78 0.72
-3 0 -10 3.58 0.88
3 0 10 2.9 0.71
-4 0 -10 33.61 1.98
-4 0 -10 32.24 1.94
4 0 10 31.44 1.72
-5 0 -10 21.4 1.8
-5 0 -10 18.64 1.51
5 0 10 20.76 1.42
-6 0 -10 1.45 0.9
-6 0 -10 2.87 1.04
6 0 10 2.75 0.78
-7 0 -10 0.68 1.12
-7 0 -10 1.01 1.03
7 0 10 0.19 0.68
4 -1 -10 0.87 1.38
4 -1 -10 3.97 1.44
-4 1 10 0.39 1.49
-4 1 10 0.76 0.51
-4 1 10 0.53 1.53
-4 1 10 1.82 0.92
3 -1 -10 -0.35 1.05
3 -1 -10 0.4 1.04
-3 1 10 1 0.77
-3 1 10 0.49 0.51
-3 1 10 3.49 1.25
2 -1 -10 0.37 0.86
2 -1 -10 0.68 0.88
-2 1 10 0.5 0.88
-2 1 10 0.04 0.81
-2 1 10 0.63 0.48
1 -1 -10 -0.32 0.65
1 -1 -10 0.1 0.69
-1 1 10 -0.26 0.62
-1 1 10 -0.05 0.46
-1 1 10 1.24 0.56
-1 1 10 0.84 1.16
0 -1 -10 14.85 1.19
0 -1 -10 16.72 1.21
0 1 10 18.1 1.2
0 1 10 14.9 1.18
0 1 10 17.31 1.22
0 1 10 14.49 1.16
0 1 10 15.17 1.05
-1 -1 -10 2.06 0.72
1 1 10 3.23 0.68
1 1 10 2.51 0.45
1 1 10 2.31 0.64
1 1 10 2.58 0.59
-2 -1 -10 3.22 0.36
-2 -1 -10 3.47 0.67
-2 -1 -10 2.61 0.86
-2 -1 -10 2.75 0.37
2 1 10 2.6 0.66
2 1 10 2.28 0.71
-3 -1 -10 0.73 0.6
-3 -1 -10 0.01 0.64
3 1 10 -0.05 0.51
3 1 10 -0.11 0.54
-4 -1 -10 0.66 0.64
-4 -1 -10 1.41 0.77
4 1 10 1.1 0.6
4 1 10 0.62 0.61
-5 -1 -10 0.56 0.74
-5 -1 -10 2.12 0.81
5 1 10 0.6 0.61
-6 -1 -10 61.59 2.8
-6 -1 -10 64.33 2.86
-7 -1 -10 4.66 1.14
-7 -1 -10 3.41 1.09
-8 -1 -10 -0.55 1.24
4 -2 -10 0.97 1.4
4 -2 -10 0.39 1.37
-4 2 10 0.78 0.92
-4 2 10 3.29 1.48
-4 2 10 -0.51 1.37
-4 2 10 -0.25 0.6
3 -2 -10 11.89 1.47
3 -2 -10 12.56 1.51
-3 2 10 9.82 1.18
-3 2 10 10.53 1.5
-3 2 10 10.96 1.05
2 -2 -10 2.07 0.9
2 -2 -10 3.77 0.94
-2 2 10 3.23 0.64
-2 2 10 3.89 0.79
-2 2 10 5.69 1.08
-2 2 10 4.63 1
1 -2 -10 0.15 0.63
1 -2 -10 0.3 0.69
-1 2 10 -0.23 0.78
-1 2 10 -0.35 0.61
-1 2 10 -0.22 0.56
-1 2 10 0 0.52
0 -2 -10 1.26 0.58
0 -2 -10 0.2 0.5
0 2 10 0.08 0.54
0 2 10 0.72 0.57
0 2 10 1.38 0.55
-1 -2 -10 5.3 0.69
1 2 10 6.97 0.81
1 2 10 5.3 0.59
1 2 10 8.42 0.99
1 2 10 4.93 0.72
-2 -2 -10 109.82 3.3
-2 -2 -10 110.3 3.83
-2 -2 -10 116.65 3.8
-2 -2 -10 111.94 3.3
2 2 10 104.85 3.72
2 2 10 111.77 3.81
-3 -2 -10 -0.14 0.6
3 2 10 1.75 0.62
-4 -2 -10 3.71 0.79
-4 -2 -10 3.41 0.74
4 2 10 3.1 0.66
-5 -2 -10 16.97 1.39
-5 -2 -10 16.97 1.45
5 2 10 18.22 1.26
-6 -2 -10 0.83 0.78
-6 -2 -10 -0.07 0.75
-7 -2 -10 -1.39 0.9
-7 -2 -10 0.1 0.9
-8 -2 -10 2.44 1.28
4 -3 -10 0.65 1.42
4 -3 -10 0.77 1.43
-4 3 10 -1.35 0.86
-4 3 10 0.37 0.64
-4 3 10 -0.47 1.41
3 -3 -10 -0.38 1.05
3 -3 -10 -0.63 1.04
-3 3 10 0.86 0.62
-3 3 10 0.81 0.79
-3 3 10 0.23 1.14
2 -3 -10 -0.9 0.81
2 -3 -10 -0.58 0.86
-2 3 10 -0.48 0.8
-2 3 10 -0.06 0.87
-2 3 10 -0.56 0.62
1 -3 -10 2.25 0.76
1 -3 -10 1.3 0.71
-1 3 10 1.73 0.66
-1 3 10 0.41 0.61
0 -3 -10 -0.24 0.57
0 -3 -10 0.4 0.56
0 3 10 0.56 0.58
0 3 10 1.47 0.59
-1 -3 -10 23.31 1.14
-1 -3 -10 18.64 1.17
1 3 10 20.25 1.19
1 3 10 20.11 1.37
-2 -3 -10 0.81 0.35
-2 -3 -10 0.83 0.36
-2 -3 -10 0.48 0.56
2 3 10 1.06 0.33
2 3 10 0.63 0.3
2 3 10 0.38 0.57
2 3 10 1.28 0.58
-3 -3 -10 4.72 0.79
-3 -3 -10 5.49 0.77
3 3 10 6.81 0.83
-4 -3 -10 0.22 0.53
-4 -3 -10 0.02 0.6
4 3 10 -0.05 0.52
-5 -3 -10 40.65 2.06
-5 -3 -10 39.84 1.86
5 3 10 36.77 1.83
-6 -3 -10 2.82 0.77
-6 -3 -10 1.09 0.79
6 3 10 2.87 0.7
-7 -3 -10 7.29 1.16
7 3 10 5.63 0.87
-8 -3 -10 -0.14 0.28
-8 -3 -10 0.33 1.12
4 -4 -10 18.88 2.09
4 -4 -10 17.28 2.02
-4 4 10 17.84 1.84
-4 4 10 15.41 2.09
3 -4 -10 17.27 2.19
3 -4 -10 17.54 2.12
-3 4 10 14.65 1.76
-3 4 10 14.69 1.57
2 -4 -10 11.81 1.57
2 -4 -10 10.61 1.35
-2 4 10 9.6 1.11
-2 4 10 10.84 1.34
1 -4 -10 25.5 1.78
1 -4 -10 27.25 1.87
-1 4 10 26.15 1.74
-1 4 10 26.87 1.45
-1 4 10 26.89 1.69
0 -4 -10 1.73 0.63
0 -4 -10 2.12 0.83
0 4 10 0.46 0.61
0 4 10 0.41 0.6
0 4 10 1.41 0.62
0 4 10 0.36 0.66
-1 -4 -10 2.92 0.62
-1 -4 -10 3.61 0.62
1 4 10 1.93 0.78
1 4 10 4.52 0.71
1 4 10 3.45 0.6
1 4 10 3.85 0.64
-2 -4 -10 0.55 0.48
-2 -4 -10 0.54 0.42
-2 -4 -10 -0.54 0.55
2 4 10 0.1 0.38
2 4 10 -0.27 0.5
2 4 10 0.62 0.57
-3 -4 -10 1.17 0.66
-3 -4 -10 0.37 0.47
-3 -4 -10 0.56 0.33
-3 -4 -10 0.57 0.33
3 4 10 0.58 0.28
3 4 10 1.38 0.89
3 4 10 0.63 0.3
3 4 10 0.58 0.58
-4 -4 -10 5.29 0.67
-4 -4 -10 5.32 0.45
-4 -4 -10 4.98 0.44
-4 -4 -10 4.75 0.83
4 4 10 4.3 0.77
-5 -4 -10 0.46 0.51
-5 -4 -10 1.25 0.62
5 4 10 0.85 0.62
-6 -4 -10 8.71 0.47
-6 -4 -10 7.56 1.09
6 4 10 7.34 0.94
-7 -4 -10 17.55 1.74
-7 -4 -10 14.12 0.83
7 4 10 15.3 1.29
-8 -4 -10 2.62 0.57
-8 -4 -10 2.2 1.2
-8 -4 -10 4.07 0.7
8 4 10 2.63 0.43
8 4 10 3.06 0.41
3 -5 -10 3.53 1.38
3 -5 -10 4.67 1.38
-3 5 10 5.82 1.5
-3 5 10 6.95 1.45
-3 5 10 6.42 1.06
2 -5 -10 4.7 1.36
2 -5 -10 7.68 1.3
-2 5 10 5.81 0.95
-2 5 10 7.04 1.25
1 -5 -10 10.82 1.22
1 -5 -10 11.26 1.23
-1 5 10 7.17 1.04
-1 5 10 8.03 1
0 -5 -10 -0.14 0.66
0 -5 -10 0.03 0.68
0 5 10 -0.67 0.61
0 5 10 -0.31 0.53
0 5 10 0.07 0.64
0 5 10 0.24 0.69
-1 -5 -10 -0.19 0.54
-1 -5 -10 0.65 0.58
1 5 10 0.64 0.58
1 5 10 1.38 0.63
1 5 10 -0.36 0.54
-2 -5 -10 0.77 0.44
-2 -5 -10 0.42 0.49
-2 -5 -10 0.86 0.5
2 5 10 0.4 0.51
2 5 10 0.6 0.63
2 5 10 1.41 0.62
2 5 10 0.11 0.49
-3 -5 -10 49.06 2.2
-3 -5 -10 46.35 1.82
-3 -5 -10 45 1.76
3 5 10 45.51 1.8
3 5 10 46.34 2.15
3 5 10 42.91 1.98
-4 -5 -10 31.57 1.41
-4 -5 -10 29.26 1.38
4 5 10 31.44 1.32
4 5 10 31.63 1.3
4 5 10 32.34 1.64
5 5 10 8.26 0.73
5 5 10 8.89 0.73
5 5 10 8.54 0.96
-6 -5 -10 16.48 0.93
-6 -5 -10 13.48 0.98
6 5 10 15.23 1.24
6 5 10 15.07 0.91
6 5 10 13.59 0.87
-7 -5 -10 -0.07 0.51
-7 -5 -10 0.67 0.53
-7 -5 -10 -0.05 0.97
7 5 10 0.61 0.62
7 5 10 -0.08 0.47
7 5 10 0.12 0.46
-8 -5 -10 -0.14 0.69
-8 -5 -10 2.52 1.18
8 5 10 0.08 0.66
8 5 10 -0.11 0.6
8 5 10 0.48 0.61
8 5 10 -1.63 0.84
3 -6 -10 28.7 2.63
3 -6 -10 26.23 2.75
-3 6 10 29.99 2.16
-3 6 10 33.96 3.23
-3 6 10 27.55 2.68
2 -6 -10 1.5 1.14
2 -6 -10 3.62 1.16
-2 6 10 0.88 1.16
-2 6 10 2.09 0.84
-2 6 10 3.13 1.22
1 -6 -10 3.46 1.05
1 -6 -10 2.18 0.98
-1 6 10 3.16 1.05
-1 6 10 2.58 0.97
-1 6 10 2.77 0.81
0 -6 -10 -0.8 0.73
0 -6 -10 -0.29 0.78
0 6 10 -1.52 0.64
0 6 10 0.25 0.6
-1 -6 -10 -0.65 0.66
-1 -6 -10 -0.25 0.65
1 6 10 0.7 0.7
1 6 10 -0.77 0.59
1 6 10 -0.13 0.65
1 6 10 0.34 0.53
-2 -6 -10 11.24 1.18
-2 -6 -10 11.7 0.78
-2 -6 -10 10.61 1.22
2 6 10 12.21 1.14
2 6 10 12.37 1.35
2 6 10 15.43 1.35
2 6 10 12.91 1.23
-3 -6 -10 29.7 1.16
-3 -6 -10 26.24 1.51
-3 -6 -10 28.02 1.54
3 6 10 31.12 1.55
3 6 10 29.57 1.55
3 6 10 28.43 1.74
3 6 10 27.65 1.58
-4 -6 -10 -0.57 0.45
4 6 10 0.27 0.5
4 6 10 -0.6 0.56
4 6 10 0.49 0.53
-5 -6 -10 -0.29 0.48
-5 -6 -10 0.18 0.53
5 6 10 1 0.55
5 6 10 0.31 0.6
-6 -6 -10 0.38 0.55
-6 -6 -10 0.31 0.87
-6 -6 -10 0.22 0.58
6 6 10 -0.29 0.6
-7 -6 -10 1.1 0.94
-7 -6 -10 1.66 0.63
-7 -6 -10 1.29 0.68
7 6 10 1.75 0.72
7 6 10 0.72 0.65
-8 -6 -10 0.32 0.73
-8 -6 -10 -0.43 0.76
-8 -6 -10 1 1.2
8 6 10 0.52 0.8
8 6 10 -0.24 0.67
2 -7 -10 4.82 1.39
2 -7 -10 1.39 1.38
-2 7 10 3.74 0.97
-2 7 10 7.22 1.52
-2 7 10 5.58 1.47
1 -7 -10 5.8 1.25
1 -7 -10 6.58 1.29
-1 7 10 5.58 1.29
-1 7 10 7.27 1.06
0 -7 -10 11.89 1.58
0 -7 -10 10.5 1.3
0 7 10 15.33 1.79
0 7 10 9.88 1.28
0 7 10 12.57 1.4
-1 -7 -10 2.46 0.87
-1 -7 -10 1.42 0.29
-1 -7 -10 1.86 0.81
1 7 10 1.67 0.69
1 7 10 1.97 0.83
-2 -7 -10 2.82 0.81
-2 -7 -10 3.2 0.82
2 7 10 1.67 0.78
2 7 10 1.64 0.79
2 7 10 1.31 0.7
-3 -7 -10 0.14 0.64
-3 -7 -10 -0.82 0.62
3 7 10 0.94 0.67
3 7 10 -0.66 0.64
3 7 10 0.66 0.68
3 7 10 0.63 0.62
-4 -7 -10 -0.01 0.78
-4 -7 -10 2.62 0.7
4 7 10 3.57 0.77
4 7 10 2.7 0.73
4 7 10 4.17 0.81
-5 -7 -10 7.58 0.9
-5 -7 -10 9.63 1.17
-5 -7 -10 6.36 1
5 7 10 9.61 1.22
5 7 10 10.13 1.13
5 7 10 6.77 0.9
-6 -7 -10 1.35 0.7
-6 -7 -10 0.91 0.94
-6 -7 -10 2.59 0.78
6 7 10 1.46 0.7
6 7 10 0.88 0.7
-7 -7 -10 -1.04 0.94
-7 -7 -10 -0.14 0.73
-7 -7 -10 -0.2 0.74
7 7 10 0.64 0.69
7 7 10 0.21 0.79
7 7 10 0.6 0.8
-8 -7 -10 -1.27 0.89
-8 -7 -10 0.07 1.18
-8 -7 -10 -0.95 0.82
8 7 10 1.46 0.96
8 7 10 -0.6 0.71
8 7 10 0.25 0.96
2 -8 -10 2.44 1.42
2 -8 -10 -0.13 1.44
-2 8 10 -0.08 1.48
-2 8 10 1.28 1.08
-2 8 10 1.5 1.56
1 -8 -10 0.84 1.26
1 -8 -10 -0.86 1.11
1 -8 -10 0.07 0.44
-1 8 10 -1.36 0.83
-1 8 10 2.01 1.3
-1 8 10 0.86 1.27
0 -8 -10 36.21 2.48
0 -8 -10 38.03 2.41
0 8 10 36.48 2.44
0 8 10 34.09 2.1
-1 -8 -10 6.58 1.13
-1 -8 -10 5.28 1.12
1 8 10 6.5 1.12
1 8 10 7.41 1.23
1 8 10 6.41 0.98
-2 -8 -10 0.87 0.87
-2 -8 -10 1.28 0.86
2 8 10 0.94 0.8
2 8 10 0.01 0.87
2 8 10 1.09 0.88
-3 -8 -10 2.18 0.84
3 8 10 2.79 0.82
3 8 10 2.12 0.88
3 8 10 1.06 0.82
3 8 10 1.9 0.72
-4 -8 -10 0.67 0.8
-4 -8 -10 0.39 0.78
-4 -8 -10 0.2 0.77
4 8 10 -0.31 0.75
4 8 10 -0.08 0.61
4 8 10 1.38 0.86
4 8 10 0.28 0.76
-5 -8 -10 13.23 1.48
-5 -8 -10 12.62 1.57
-5 -8 -10 13.92 1.62
5 8 10 12.71 1.27
5 8 10 12.85 1.6
5 8 10 14.25 1.55
-6 -8 -10 1.69 0.83
-6 -8 -10 -0.59 0.85
-6 -8 -10 -0.15 0.98
6 8 10 0.91 0.96
6 8 10 0.9 0.68
6 8 10 1.29 0.84
-7 -8 -10 4.54 1.08
-7 -8 -10 5.12 1.23
-7 -8 -10 3.9 1.05
7 8 10 5.18 0.92
7 8 10 5.26 1.09
7 8 10 3.99 1.11
1 -9 -10 -2.16 1.41
1 -9 -10 -0.38 1.39
-1 9 10 -2 0.9
-1 9 10 -0.25 1.61
-1 9 10 -1.63 1.48
0 -9 -10 0.45 1.26
0 -9 -10 1.05 1.21
0 9 10 1.21 1.34
0 9 10 -0.83 1.21
0 9 10 2.1 0.98
1 9 10 3.27 1.3
-2 -9 -10 1.32 1.04
-2 -9 -10 2.05 1.06
2 9 10 2.95 1.17
2 9 10 0.32 0.88
-3 -9 -10 3.26 1.03
3 9 10 5.39 1.12
3 9 10 4.32 0.95
3 9 10 2.15 1.09
3 9 10 2.41 0.78
-4 -9 -10 15.15 1.78
-4 -9 -10 17.98 1.95
4 9 10 14.39 1.37
4 9 10 14.28 1.8
4 9 10 10.25 1.39
4 9 10 11.72 1.32
-5 -9 -10 18.87 1.87
-5 -9 -10 15.48 1.82
-5 -9 -10 15.78 1.93
5 9 10 14.76 2.01
5 9 10 15.9 1.8
5 9 10 16.91 1.46
-6 -9 -10 6.19 1.21
-6 -9 -10 6.31 1.31
-6 -9 -10 5.8 1.18
6 9 10 3.73 1.24
6 9 10 5.31 0.93
6 9 10 7.24 1.22
-1 -10 -10 -0.24 1.44
-1 -10 -10 -1.56 1.27
1 10 10 -2.17 2.47
1 10 10 0.5 1
1 10 10 -1.81 1.42
-2 -10 -10 1.88 1.22
2 10 10 2.09 1.41
2 10 10 2.43 1.42
2 10 10 1.43 1
-3 -10 -10 0.09 1.18
3 10 10 -0.96 1.33
3 10 10 -0.33 0.69
3 10 10 -0.83 0.86
-4 -10 -10 -1.6 1.22
-4 -10 -10 0.36 1.07
4 10 10 -1.33 0.89
4 10 10 0.61 0.75
4 10 10 -0.36 1.3
-5 -10 -10 -1.03 1.1
-5 -10 -10 0.72 1.13
-5 -10 -10 0.14 1.3
5 10 10 1.09 0.79
5 10 10 0.09 1.35
-1 -2 11 1.38 0.74
0 2 -11 0.99 0.86
0 2 -11 1.01 0.85
0 -2 11 0.35 0.75
0 -2 11 1.08 0.85
0 -2 11 1.02 0.76
-1 2 -11 -0.17 0.66
-1 2 -11 1.59 0.91
1 -2 11 0.25 0.57
1 -2 11 0 0.55
1 -2 11 0.76 0.75
-2 2 -11 2.31 1.22
-2 2 -11 2.35 0.52
-2 2 -11 1.4 0.47
2 -2 11 3.56 0.84
-3 2 -11 1.37 0.72
-3 2 -11 2.26 1.25
-4 2 -11 7.33 1.01
-4 2 -11 8.73 1.51
-2 -1 11 1.39 0.75
1 1 -11 0.37 0.96
1 1 -11 1.34 0.94
-1 -1 11 2.26 0.92
-1 -1 11 0.73 0.95
-1 -1 11 -0.29 0.66
-1 -1 11 2.59 0.76
0 1 -11 3.39 0.89
0 1 -11 1.86 0.8
0 -1 11 3.23 0.9
0 -1 11 3.65 0.82
-1 1 -11 64.8 2.85
-1 1 -11 68.15 2.47
1 -1 11 59.5 2.74
1 -1 11 66 2.26
1 -1 11 66.32 2.76
-2 1 -11 1.23 0.32
-2 1 -11 2.24 1.02
2 -1 11 1.54 0.74
-3 1 -11 4 1.16
3 -1 11 2.01 0.79
-4 1 -11 13.18 1.43
-4 1 -11 15.99 1.99
4 -1 11 18 1.47
-5 1 -11 5.79 1.34
-5 1 -11 0.35 0.89
5 -1 11 2.89 0.81
-6 1 -11 1.22 1.35
-6 1 -11 0.89 1.11
6 -1 11 3.1 0.75
2 0 -11 0.67 1.05
2 0 -11 2.93 1.16
-2 0 11 3.9 1.12
-2 0 11 4.29 1.19
-2 0 11 2.7 0.88
1 0 -11 12.69 1.6
1 0 -11 9.99 1.2
-1 0 11 15.45 1.67
-1 0 11 13.1 1.06
-1 0 11 13.69 1.55
-1 0 11 14.81 1.34
-1 0 11 13.77 1.42
0 0 -11 100.34 3.46
0 0 -11 92.63 3.4
0 0 11 94.15 3.48
0 0 11 98.03 3.44
0 0 11 97.75 3.44
0 0 11 87.82 3.33
0 0 11 93.45 3.33
-1 0 -11 74.89 2.6
-1 0 -11 72.87 2.64
1 0 11 74.65 2.49
1 0 11 77.6 2.97
1 0 11 74.02 2.72
-2 0 -11 -0.17 0.19
-2 0 -11 0.38 0.92
2 0 11 -0.13 0.63
-3 0 -11 -0.34 0.86
-3 0 -11 1.1 0.7
3 0 11 1.43 0.71
-4 0 -11 1.75 0.94
-4 0 -11 0.1 0.72
4 0 11 0.46 0.66
-5 0 -11 16.35 1.57
-5 0 -11 18.32 2.05
5 0 11 15.55 1.44
-6 0 -11 6.22 1.34
-6 0 -11 5.04 1.13
6 0 11 6.28 0.98
2 -1 -11 -1.06 0.95
2 -1 -11 0.68 1.03
-2 1 11 -0.43 1.11
-2 1 11 -0.86 0.91
-2 1 11 1.12 0.79
-2 1 11 0.24 0.56
1 -1 -11 12.62 1.55
1 -1 -11 10.89 1.49
-1 1 11 9.93 1.01
-1 1 11 10.05 1.29
-1 1 11 11.88 1.47
-1 1 11 13.55 1.58
0 -1 -11 2.07 0.69
0 -1 -11 1.59 0.69
0 1 11 1.25 0.62
0 1 11 2.24 0.69
0 1 11 1.5 0.69
-1 -1 -11 8.45 0.92
-1 -1 -11 11.56 1.02
1 1 11 9.55 1.03
1 1 11 10.78 1.15
1 1 11 10.2 1.23
1 1 11 10.54 0.88
-2 -1 -11 0.76 0.2
-2 -1 -11 0.87 0.2
-2 -1 -11 2.05 0.86
2 1 11 -0.11 0.57
2 1 11 0.3 0.57
-3 -1 -11 -0.38 0.6
-3 -1 -11 -1.22 0.75
3 1 11 0.26 0.56
3 1 11 -1.25 0.51
-4 -1 -11 1.56 0.72
-4 -1 -11 -0.44 0.78
4 1 11 1.2 0.67
4 1 11 0.6 0.61
-5 -1 -11 -0.57 0.78
-5 -1 -11 -0.44 0.87
5 1 11 0.38 0.63
-6 -1 -11 73.48 3.23
-6 -1 -11 71.36 3.24
-7 -1 -11 34.01 2.42
-7 -1 -11 35.14 2.48
3 -2 -11 1.18 1.31
3 -2 -11 2.77 1.3
-3 2 11 3.32 0.98
-3 2 11 0.37 0.89
-3 2 11 2.57 1.45
2 -2 -11 23.94 2.06
2 -2 -11 19.39 2.05
-2 2 11 24.59 2.18
-2 2 11 18.79 1.62
-2 2 11 19.56 1.94
1 -2 -11 2.47 0.88
1 -2 -11 1.01 0.81
-1 2 11 0.33 0.81
-1 2 11 1.89 0.72
-1 2 11 0.94 0.74
-1 2 11 0.91 0.79
0 -2 -11 25.02 1.55
0 -2 -11 22.87 1.51
0 2 11 25.56 1.57
0 2 11 21.62 1.89
0 2 11 23.07 1.36
-1 -2 -11 4.78 0.62
1 2 11 4.32 0.74
1 2 11 3.53 0.56
1 2 11 3.29 0.54
-2 -2 -11 0.1 0.69
-2 -2 -11 -0.17 0.28
-2 -2 -11 1.02 0.31
2 2 11 -0.6 0.71
2 2 11 -0.03 0.54
-3 -2 -11 17.07 1.48
-3 -2 -11 17.75 1.38
3 2 11 19.82 1.28
-4 -2 -11 0.95 0.75
-4 -2 -11 0 0.68
4 2 11 0.17 0.55
-5 -2 -11 2.06 0.83
-5 -2 -11 1.22 0.78
5 2 11 1.98 0.71
-6 -2 -11 32.23 2.07
-6 -2 -11 28.65 2.08
-7 -2 -11 34.5 2.41
-7 -2 -11 35.71 2.31
3 -3 -11 9.31 1.61
3 -3 -11 6.63 1.51
-3 3 11 5.59 1.59
-3 3 11 8.04 0.91
-3 3 11 7.06 1.22
2 -3 -11 8.25 1.31
2 -3 -11 6.26 1.19
-2 3 11 5.62 1.28
-2 3 11 7.15 0.87
-2 3 11 5.44 0.97
1 -3 -11 0.62 0.83
1 -3 -11 0.85 0.8
-1 3 11 0.6 0.77
-1 3 11 1.34 0.61
-1 3 11 0.86 0.88
0 -3 -11 0.65 0.63
0 -3 -11 2.26 0.73
0 3 11 1.37 0.67
0 3 11 2.14 0.77
0 3 11 2.54 0.7
0 3 11 0.87 0.69
-1 -3 -11 1.26 0.53
-1 -3 -11 1.42 0.55
1 3 11 1.92 0.72
1 3 11 1.79 0.56
1 3 11 3.1 0.71
-2 -3 -11 3.68 0.78
-2 -3 -11 5.79 0.69
2 3 11 3.3 0.78
2 3 11 3.51 0.39
2 3 11 4.42 0.55
2 3 11 5.63 0.79
-3 -3 -11 20.2 1.49
-3 -3 -11 18.45 1.46
3 3 11 20.35 1.31
-4 -3 -11 0.87 0.75
-4 -3 -11 0.8 0.65
4 3 11 1.61 0.66
-5 -3 -11 1.16 0.79
-5 -3 -11 2.9 0.8
5 3 11 1.52 0.67
-6 -3 -11 11.63 1.34
-6 -3 -11 12.87 1.39
6 3 11 9.18 1.08
-7 -3 -11 -0.44 0.86
-7 -3 -11 1.06 1.11
-8 -3 -11 0.62 1.38
3 -4 -11 3.66 1.44
-3 4 11 3.09 1.06
-3 4 11 3.25 1.52
-3 4 11 3.74 0.77
2 -4 -11 3.76 1.21
2 -4 -11 5.77 1.26
-2 4 11 6.16 0.84
-2 4 11 6.92 1.3
-2 4 11 6.17 1.06
1 -4 -11 0.9 0.86
1 -4 -11 1.17 0.9
-1 4 11 0.83 0.61
-1 4 11 -0.13 0.82
-1 4 11 0.99 0.74
-1 4 11 0.06 0.86
0 -4 -11 17.47 1.53
0 -4 -11 20.49 1.51
0 4 11 16.8 1.48
0 4 11 19.81 1.27
0 4 11 18.69 1.56
-1 -4 -11 9.52 1.08
-1 -4 -11 9.67 1.12
1 4 11 12.22 1.08
1 4 11 11.93 1.4
1 4 11 9.51 1.07
-2 -4 -11 -0.01 0.44
-2 -4 -11 0.08 0.56
2 4 11 -0.38 0.4
2 4 11 -0.11 0.54
2 4 11 1.56 0.71
2 4 11 0.51 0.43
-3 -4 -11 5.76 0.78
-3 -4 -11 5.63 0.58
-3 -4 -11 4.37 0.83
3 4 11 5.29 0.4
3 4 11 4.57 0.36
3 4 11 5.25 0.79
3 4 11 3.84 0.85
-4 -4 -11 0.3 0.74
-4 -4 -11 0.47 0.58
4 4 11 -0.01 0.58
-5 -4 -11 9.73 1.24
-5 -4 -11 11.17 1.41
5 4 11 11.59 1.14
-6 -4 -11 8.3 1.03
-6 -4 -11 5.88 1.13
6 4 11 7.18 0.94
-7 -4 -11 0.06 0.96
7 4 11 0.84 0.73
-8 -4 -11 -1.37 1.29
2 -5 -11 -0.67 1.12
2 -5 -11 0.36 1.15
-2 5 11 1.9 0.91
-2 5 11 0.91 0.63
-2 5 11 -1.24 1.21
1 -5 -11 17.95 1.8
1 -5 -11 17.52 1.86
-1 5 11 16.9 1.88
-1 5 11 16.34 1.27
-1 5 11 15.11 1.76
-1 5 11 17.38 1.66
0 -5 -11 2.16 0.81
0 -5 -11 0.81 0.77
0 5 11 3.19 0.71
0 5 11 2.76 0.8
0 5 11 1.51 0.81
-1 -5 -11 28.28 1.66
-1 -5 -11 24.96 1.59
1 5 11 28.35 1.79
1 5 11 27.28 1.64
1 5 11 26.03 1.61
1 5 11 27.52 1.55
-2 -5 -11 3.45 0.63
-2 -5 -11 3.15 0.65
-2 -5 -11 2.95 0.64
2 5 11 3.84 0.77
2 5 11 4.29 0.86
2 5 11 3.18 0.64
2 5 11 3.85 0.63
-3 -5 -11 -0.56 0.7
-3 -5 -11 0.96 0.52
-3 -5 -11 0.64 0.44
3 5 11 0.36 0.42
3 5 11 0.44 0.61
3 5 11 0.17 0.65
3 5 11 1.11 0.45
-4 -5 -11 0.32 0.51
-4 -5 -11 -0.58 0.78
-4 -5 -11 -0.47 0.35
4 5 11 0.26 0.32
4 5 11 0.12 0.29
4 5 11 -0.18 0.56
-5 -5 -11 0.27 0.83
-5 -5 -11 2.04 0.37
-5 -5 -11 1.84 0.61
5 5 11 1.84 0.73
-6 -5 -11 28.95 1.03
-6 -5 -11 28.04 2.05
-6 -5 -11 22.37 1.04
6 5 11 28 1.67
-7 -5 -11 0.46 1.06
7 5 11 0.36 0.7
-8 -5 -11 4.6 1.72
-8 -5 -11 2.83 0.55
8 5 11 1.44 0.79
2 -6 -11 0.17 1.29
2 -6 -11 2.45 1.39
-2 6 11 3.48 1.28
-2 6 11 1.99 1.04
-2 6 11 2.23 1.39
1 -6 -11 0.47 1.01
1 -6 -11 0.11 1.03
-1 6 11 2.24 1.01
-1 6 11 2.07 0.88
-1 6 11 1.45 1.15
0 -6 -11 1.37 0.91
0 -6 -11 0.42 0.83
0 6 11 1.57 0.7
0 6 11 1.96 0.82
0 6 11 0.48 0.91
0 6 11 1.47 0.85
-1 -6 -11 6.33 0.97
-1 -6 -11 5.6 0.97
1 6 11 6.88 0.98
1 6 11 5.58 0.96
1 6 11 6.7 0.91
-2 -6 -11 11.75 1.27
-2 -6 -11 12.86 1.29
-2 -6 -11 12.44 0.96
2 6 11 11.58 1.37
2 6 11 12.35 1.19
2 6 11 13.68 1.27
2 6 11 12.43 1.33
-3 -6 -11 0.62 0.81
-3 -6 -11 0.05 0.4
-3 -6 -11 0.71 0.54
-3 -6 -11 -0.37 0.53
3 6 11 0.23 0.66
3 6 11 0.9 0.68
3 6 11 0.62 0.54
-4 -6 -11 0.71 0.43
-4 -6 -11 0.86 0.53
-4 -6 -11 1.47 0.83
-4 -6 -11 1.56 0.57
4 6 11 -0.09 0.62
4 6 11 1.87 0.57
-5 -6 -11 2.13 0.55
-5 -6 -11 1.52 0.91
5 6 11 1.39 0.54
5 6 11 2.65 0.78
5 6 11 1.21 0.52
-6 -6 -11 3.37 1.01
-6 -6 -11 4.49 0.63
6 6 11 4.44 0.59
6 6 11 3.74 0.85
6 6 11 4.71 0.6
-7 -6 -11 3.03 1.19
-7 -6 -11 2.31 0.66
-7 -6 -11 1.95 0.65
7 6 11 1.45 0.58
7 6 11 1.23 0.78
8 6 11 5.59 0.98
2 -7 -11 4.59 1.55
2 -7 -11 4.23 1.53
-2 7 11 6.19 1.69
-2 7 11 6.9 1.76
-2 7 11 4.51 1.25
1 -7 -11 3.24 1.29
1 -7 -11 2.42 1.27
-1 7 11 4.03 1.35
-1 7 11 3.87 1.07
0 -7 -11 0.4 0.91
0 -7 -11 0.76 1.03
0 7 11 0.16 1.01
0 7 11 0.4 0.64
0 7 11 1.07 1.05
-1 -7 -11 -0.17 0.38
-1 -7 -11 -0.51 0.85
-1 -7 -11 0.37 0.87
1 7 11 0.1 0.86
1 7 11 -0.59 0.77
1 7 11 0.03 0.73
1 7 11 0.36 0.59
-2 -7 -11 0.64 0.76
-2 -7 -11 0.98 0.79
-2 -7 -11 0.41 0.27
2 7 11 0.83 0.75
2 7 11 0.79 0.68
2 7 11 -0.38 0.64
-3 -7 -11 -0.03 0.65
-3 -7 -11 0.16 0.67
3 7 11 0.71 0.68
3 7 11 0.75 0.69
3 7 11 0.87 0.78
-4 -7 -11 25.36 1.91
-4 -7 -11 27.83 1.64
-4 -7 -11 27.74 1.63
4 7 11 26.97 1.6
4 7 11 27.79 1.66
4 7 11 26.69 1.68
-5 -7 -11 0.23 0.64
-5 -7 -11 -0.56 0.89
5 7 11 0.08 0.67
5 7 11 1.15 0.65
5 7 11 0.56 0.68
-6 -7 -11 7.63 0.92
-6 -7 -11 6.29 1.19
-6 -7 -11 7.55 0.94
6 7 11 8.81 1.07
-7 -7 -11 0.33 0.78
-7 -7 -11 -1.02 1.16
-7 -7 -11 -0.12 0.73
7 7 11 0.59 0.73
7 7 11 0.74 0.94
1 -8 -11 3.88 1.56
1 -8 -11 3.68 1.42
1 -8 -11 4.04 0.61
-1 8 11 4.66 1.6
-1 8 11 3.87 1.16
-1 8 11 5.2 1.51
0 -8 -11 -0.49 1.15
0 -8 -11 0.26 0.32
0 -8 -11 -0.41 1.14
0 8 11 -0.6 0.81
0 8 11 0.87 1.25
-1 -8 -11 5.79 1.21
-1 -8 -11 6.02 1.2
1 8 11 5.62 1.12
1 8 11 4.88 1.25
1 8 11 5.6 1.05
-2 -8 -11 0.33 0.89
-2 -8 -11 -1.14 0.84
2 8 11 0.83 0.71
2 8 11 1.41 0.91
2 8 11 -0.52 0.77
2 8 11 -0.67 0.96
-3 -8 -11 1.42 0.84
-3 -8 -11 1.45 0.89
3 8 11 1.28 0.82
3 8 11 1.01 0.88
3 8 11 2.07 0.96
3 8 11 0.36 0.7
-4 -8 -11 -0.6 0.77
-4 -8 -11 0.08 0.89
4 8 11 0.63 0.83
4 8 11 1.87 0.9
4 8 11 0.66 0.74
4 8 11 2.25 0.87
-5 -8 -11 -0.05 0.81
-5 -8 -11 0.09 0.82
-5 -8 -11 1.55 0.99
5 8 11 -1.22 0.73
5 8 11 0.4 0.73
5 8 11 2.17 0.91
-6 -8 -11 1.3 0.84
-6 -8 -11 3.16 1.18
-6 -8 -11 0.74 0.86
6 8 11 1.01 0.84
6 8 11 2.02 0.96
6 8 11 0.57 0.77
-7 -8 -11 3.16 1.39
-7 -8 -11 4.66 1.07
-7 -8 -11 2.74 1.01
7 8 11 5.37 0.99
7 8 11 4.68 1.02
7 8 11 3.39 1.08
0 -9 -11 -0.2 1.39
0 -9 -11 2.35 1.43
0 9 11 0.97 1.54
0 9 11 2.03 1.14
0 9 11 2.64 1.43
-1 -9 -11 1.27 1.26
-1 -9 -11 2.53 1.28
1 9 11 1.52 0.95
1 9 11 0.57 1.37
-2 -9 -11 5.97 1.29
-2 -9 -11 3.12 1.17
2 9 11 3.98 1.32
2 9 11 5.76 1.26
2 9 11 4.26 1.08
2 9 11 4.24 0.92
-3 -9 -11 2.67 1.1
-3 -9 -11 5.22 1.13
3 9 11 2.36 0.96
3 9 11 5.34 1.27
3 9 11 2.27 0.81
3 9 11 3.84 1.07
-4 -9 -11 1.74 0.98
4 9 11 1.26 1.13
4 9 11 1.34 0.77
4 9 11 1.9 1.03
4 9 11 2.02 0.98
-5 -9 -11 0.06 1.11
-5 -9 -11 0.8 0.96
-5 -9 -11 1.19 1.07
5 9 11 1.29 1.16
5 9 11 0.24 0.77
5 9 11 1.56 1.03
-6 -9 -11 3.37 1.11
-6 -9 -11 3.35 1.2
-6 -9 -11 2.77 1.32
6 9 11 3.82 0.94
6 9 11 3.56 1.23
6 9 11 1.76 1.08
-2 -10 -11 -1.83 1.58
-2 -10 -11 0.61 1.33
2 10 11 1.81 1.52
2 10 11 2.76 1.44
2 10 11 0.42 1.06
-3 -10 -11 0.95 1.23
-3 -10 -11 -0.46 1.27
3 10 11 1.28 0.77
3 10 11 0.29 1.06
3 10 11 1.71 1.49
-4 -10 -11 0.11 1.23
4 10 11 1.28 0.76
4 10 11 1.38 1.4
4 10 11 1.83 1.14
-1 1 -12 -0.04 0.65
-1 1 -12 0.08 0.66
-2 1 -12 3.84 1.4
-3 1 -12 1.62 1.26
-4 1 -12 0.25 0.91
-4 1 -12 -0.5 1.26
0 0 -12 1.86 0.86
0 0 -12 1.37 0.85
0 0 12 2.53 1.55
0 0 12 2.53 0.82
0 0 12 1.52 0.81
-1 0 -12 64.58 2.42
1 0 12 63.7 2.83
-2 0 -12 5.06 1.25
2 0 12 6.15 0.99
-3 0 -12 -1.63 1.05
-3 0 -12 0.68 0.78
3 0 12 -0.89 0.7
-4 0 -12 -0.82 0.85
-4 0 -12 1.55 1.21
-5 0 -12 2.21 1.01
-5 0 -12 4.74 1.33
1 -1 -12 13.58 1.42
1 -1 -12 14.3 1.79
-1 1 12 12.84 1.76
-1 1 12 15.95 1.88
-1 1 12 16.83 1.76
-1 1 12 16.09 1.24
0 -1 -12 4.16 0.89
0 -1 -12 3.15 0.85
0 1 12 3.84 0.78
0 1 12 2.51 0.94
-1 -1 -12 1.73 0.63
-1 -1 -12 2.08 0.73
1 1 12 2.6 0.51
1 1 12 1.82 0.55
1 1 12 2.56 0.71
-2 -1 -12 5.78 1.13
2 1 12 5.43 0.83
-3 -1 -12 6.49 0.99
-3 -1 -12 5.33 1.14
3 1 12 6.34 0.88
3 1 12 7.73 0.99
-4 -1 -12 1.01 0.92
-4 -1 -12 1.08 0.98
4 1 12 0.61 0.7
-5 -1 -12 5.72 1.29
-5 -1 -12 7.52 1.17
-6 -1 -12 2.61 1.29
-6 -1 -12 2.33 1.13
1 -2 -12 -1.3 0.92
1 -2 -12 1.34 0.95
-1 2 12 0.97 1.02
-1 2 12 -0.13 0.85
-1 2 12 -1.01 0.58
0 -2 -12 2.23 0.82
0 -2 -12 2.04 0.8
0 2 12 0.4 0.8
0 2 12 2.15 0.68
-1 -2 -12 3.27 0.78
-1 -2 -12 3.02 0.71
1 2 12 3.24 0.72
1 2 12 3.35 0.87
1 2 12 3.57 0.94
1 2 12 2.3 0.55
-2 -2 -12 1.14 0.34
-2 -2 -12 1.56 0.87
-2 -2 -12 2.15 0.31
2 2 12 1.88 0.68
-3 -2 -12 0.42 0.8
-3 -2 -12 0.7 0.84
3 2 12 0.81 0.67
-4 -2 -12 -0.53 0.89
-4 -2 -12 0.72 0.83
4 2 12 0.57 0.63
-5 -2 -12 0.25 0.98
-5 -2 -12 -0.05 0.9
5 2 12 1.69 0.7
-6 -2 -12 3.8 1.16
-6 -2 -12 1.96 1.17
-2 3 12 -0.97 0.62
1 -3 -12 -0.54 0.94
1 -3 -12 -0.13 0.93
-1 3 12 0.57 0.86
-1 3 12 -0.06 0.64
-1 3 12 0.72 1.03
0 -3 -12 7.25 1.01
0 -3 -12 6.43 0.96
0 3 12 5.21 1.02
0 3 12 5.26 0.87
0 3 12 5.79 0.84
-1 -3 -12 11.68 1.38
1 3 12 11.12 1.24
1 3 12 12.57 1.33
1 3 12 12.89 1.36
1 3 12 14.42 1.25
-2 -3 -12 15.65 0.94
-2 -3 -12 13.32 1.43
2 3 12 17.48 1.54
2 3 12 15.35 0.66
2 3 12 16.46 1.26
2 3 12 15.04 0.65
-3 -3 -12 38.02 2.11
-3 -3 -12 36.1 2.01
3 3 12 32.89 1.8
-4 -3 -12 9.55 1.13
-4 -3 -12 9.99 1.18
4 3 12 11.5 1.19
-5 -3 -12 1.12 0.95
-5 -3 -12 3.93 0.94
5 3 12 2.47 0.78
-6 -3 -12 -1.3 0.88
-6 -3 -12 0.31 1.05
6 3 12 0.94 0.71
-7 -3 -12 8.63 1.35
-7 -3 -12 9.15 1.54
1 -4 -12 2.52 1.07
1 -4 -12 0.58 1.03
-1 4 12 0.78 0.91
-1 4 12 3.38 0.76
-1 4 12 -0.89 1.04
-1 4 12 2.5 1.02
0 -4 -12 4.84 0.96
0 -4 -12 6.09 0.98
0 4 12 6.38 0.98
0 4 12 5.52 1.01
0 4 12 6.99 0.93
0 4 12 5.52 1.03
-1 -4 -12 15.85 1.39
-1 -4 -12 17.01 1.36
1 4 12 15.64 1.49
1 4 12 13.52 1.24
1 4 12 13.81 1.34
1 4 12 16.69 1.57
-2 -4 -12 3.2 0.78
-2 -4 -12 3.21 0.58
-2 -4 -12 2.8 0.59
2 4 12 2.61 0.53
2 4 12 3.45 0.9
2 4 12 2.49 0.73
2 4 12 2.35 0.49
-3 -4 -12 2.81 0.78
-3 -4 -12 3.03 0.34
-3 -4 -12 3.89 0.91
-3 -4 -12 3.72 0.36
3 4 12 2 0.74
-4 -4 -12 14.95 1.49
-4 -4 -12 14.07 1.62
4 4 12 12.7 1.23
-5 -4 -12 -0.65 0.84
-5 -4 -12 1.13 0.78
5 4 12 -0.16 0.63
-6 -4 -12 -1.22 0.78
-6 -4 -12 0.32 1.03
6 4 12 0.84 0.74
-7 -4 -12 1.18 1.23
7 4 12 -0.22 0.66
1 -5 -12 -0.63 1.06
1 -5 -12 -0.38 1.1
-1 5 12 1.78 1.01
-1 5 12 0.77 0.9
-1 5 12 0.66 1.1
-1 5 12 1.22 0.68
0 -5 -12 0.99 0.9
0 -5 -12 0.06 0.86
0 5 12 0.74 0.91
0 5 12 0.05 0.84
0 5 12 0.82 0.85
0 5 12 -0.01 0.69
-1 -5 -12 0.66 0.73
-1 -5 -12 0.78 0.72
1 5 12 0.95 0.7
1 5 12 0.1 0.66
1 5 12 0.18 0.76
-2 -5 -12 -0.16 0.61
-2 -5 -12 -1.13 1.02
-2 -5 -12 -0.3 0.74
2 5 12 -0.63 0.73
2 5 12 -0.37 0.57
2 5 12 0.49 0.66
-3 -5 -12 1.92 0.52
-3 -5 -12 1.05 0.51
-3 -5 -12 2.56 0.93
-3 -5 -12 0.89 0.65
3 5 12 1.94 0.45
3 5 12 2.11 0.44
3 5 12 1.04 0.79
3 5 12 2.78 0.77
-4 -5 -12 0.69 0.89
-4 -5 -12 -0.28 0.85
-4 -5 -12 0.15 0.28
4 5 12 0.27 0.65
-5 -5 -12 4.98 0.8
-5 -5 -12 5.8 1.13
5 5 12 4.55 0.93
-6 -5 -12 0.72 1.09
6 5 12 -0.69 0.64
-7 -5 -12 -0.3 1.19
7 5 12 1.43 0.77
1 -6 -12 1.26 1.22
1 -6 -12 0.81 1.17
-1 6 12 1.44 1
-1 6 12 1.93 1.21
-1 6 12 1.58 1.32
-1 6 12 0.57 0.73
0 -6 -12 3.22 1.1
0 -6 -12 3.51 1.02
0 6 12 2.15 0.76
0 6 12 3.31 1.08
0 6 12 2.49 0.97
0 6 12 4.48 1.09
-1 -6 -12 1.58 0.88
-1 -6 -12 1.77 0.87
1 6 12 2.79 0.97
1 6 12 1.95 0.84
1 6 12 1.99 0.72
1 6 12 2.35 0.87
-2 -6 -12 0.1 0.55
-2 -6 -12 1.38 0.74
-2 -6 -12 1.46 0.73
2 6 12 1.26 0.71
2 6 12 0.05 0.64
2 6 12 0.53 0.85
-3 -6 -12 8.37 1.13
-3 -6 -12 8.71 1.19
-3 -6 -12 9.84 1.04
3 6 12 9.46 1.15
3 6 12 11.32 1.22
3 6 12 11.98 1.51
-4 -6 -12 3.59 1.08
-4 -6 -12 3.8 0.65
-4 -6 -12 2.88 0.59
-4 -6 -12 3.97 0.62
4 6 12 4.29 0.57
4 6 12 3.19 0.83
4 6 12 3.5 0.55
-5 -6 -12 0.53 0.46
-5 -6 -12 0.24 0.47
-5 -6 -12 1.34 1.03
5 6 12 1.37 0.75
5 6 12 1.08 0.34
5 6 12 1.14 0.39
-6 -6 -12 0.09 1.11
-6 -6 -12 1.08 0.44
-6 -6 -12 1.35 0.43
6 6 12 0.81 0.7
-7 -6 -12 4.27 1.66
-7 -6 -12 3.79 0.62
7 6 12 3.71 0.91
0 -7 -12 2.81 1.18
0 -7 -12 2.47 1.19
0 7 12 0.97 1.12
0 7 12 1.74 1.22
0 7 12 2.77 0.82
0 7 12 1.94 1.04
-1 -7 -12 -0.3 0.5
-1 -7 -12 -0.21 0.9
-1 -7 -12 -0.49 0.94
1 7 12 -0.65 0.61
1 7 12 0.9 0.91
1 7 12 -0.19 0.98
1 7 12 -0.69 0.86
-2 -7 -12 3.62 0.52
-2 -7 -12 4.28 0.96
-2 -7 -12 5.13 1.01
2 7 12 5.91 1.01
2 7 12 4.08 1.01
2 7 12 3.67 0.9
2 7 12 5.17 0.89
-3 -7 -12 71.33 2.84
-3 -7 -12 71.11 2.25
-3 -7 -12 70.06 2.84
3 7 12 68.78 2.77
3 7 12 68.63 2.9
3 7 12 68.14 3.08
-4 -7 -12 21.29 1.97
-4 -7 -12 18.18 1.49
-4 -7 -12 19.04 1.48
4 7 12 20.74 1.57
-5 -7 -12 -0.4 0.63
-5 -7 -12 0.02 1.06
-5 -7 -12 -0.11 0.89
5 7 12 -0.02 0.66
5 7 12 0.32 0.66
5 7 12 0.02 0.71
-6 -7 -12 5.85 0.81
-6 -7 -12 4.21 1.24
6 7 12 5.8 0.75
6 7 12 5.47 0.77
6 7 12 5.86 1.02
-1 -8 -12 0.02 1.15
-1 -8 -12 2.99 1.2
1 8 12 1.77 1.01
1 8 12 2.27 0.79
1 8 12 -1.36 1.01
1 8 12 1.75 1.22
-2 -8 -12 18.19 1.88
-2 -8 -12 17.58 1.92
2 8 12 16.02 1.89
2 8 12 15.84 1.47
2 8 12 17.25 2.04
2 8 12 22.26 1.92
-3 -8 -12 36.23 2.2
-3 -8 -12 37.66 2.18
3 8 12 34.89 2.32
3 8 12 32.96 2.3
3 8 12 39.73 2.07
3 8 12 33.58 2.16
-4 -8 -12 38.47 2.07
-4 -8 -12 32.95 2.07
4 8 12 33.24 2.15
4 8 12 31.72 2.03
4 8 12 37.32 2.36
4 8 12 33.75 1.97
-5 -8 -12 5.8 1.32
-5 -8 -12 7.8 1.02
5 8 12 5.67 1.03
5 8 12 8.76 1.18
5 8 12 5.42 0.96
-6 -8 -12 -0.37 1.47
-6 -8 -12 -1.73 0.82
6 8 12 0.54 0.93
6 8 12 -0.39 0.73
6 8 12 1.23 1.1
-2 -9 -12 -0.75 1.15
-2 -9 -12 1.59 1.25
2 9 12 -0.52 0.67
2 9 12 0.98 1.26
2 9 12 1.01 1.13
2 9 12 -0.85 1.17
-3 -9 -12 0.85 1.09
-3 -9 -12 0.54 1.11
3 9 12 0.27 1.21
3 9 12 1 1.1
3 9 12 -1.46 1.01
3 9 12 1.41 0.8
-4 -9 -12 2.09 1.09
-4 -9 -12 0.16 1.02
4 9 12 -0.78 1.09
4 9 12 -0.22 1.05
4 9 12 -1.21 0.71
4 9 12 -0.36 1.14
1 1 13 11.06 1.25
-2 -1 -13 3.52 1.31
2 1 13 2.14 0.78
-3 -1 -13 -0.63 1.17
-4 -1 -13 5.58 1.38
-4 -1 -13 6.58 1.18
-1 -2 -13 1.01 0.68
-1 -2 -13 -0.11 0.68
1 2 13 0.41 0.92
1 2 13 1.65 0.55
1 2 13 -0.09 0.67
1 2 13 0.42 0.69
-2 -2 -13 -1.54 1.07
2 2 13 0.69 0.72
-3 -2 -13 1.01 1.1
3 2 13 0.71 0.69
-4 -2 -13 -0.64 1.05
-4 -2 -13 0.96 1.01
4 2 13 0.11 0.74
-5 -2 -13 13.17 1.56
-5 -2 -13 15.5 1.89
5 2 13 17.76 1.45
0 -3 -13 2.46 0.98
0 -3 -13 0.4 0.87
0 3 13 0.17 0.82
0 3 13 0.88 0.7
0 3 13 0.27 0.95
0 3 13 0.08 0.97
-1 -3 -13 0 0.71
1 3 13 -0.17 0.56
1 3 13 0.49 0.74
1 3 13 1.54 0.95
1 3 13 0.18 0.7
-2 -3 -13 -0.32 0.97
-2 -3 -13 0.42 0.39
-2 -3 -13 0.62 0.4
2 3 13 0.19 0.66
2 3 13 1.28 0.93
-3 -3 -13 4.12 1.06
3 3 13 4.52 0.94
-4 -3 -13 -0.86 0.93
-4 -3 -13 -1.12 0.92
4 3 13 0.69 0.73
-5 -3 -13 0.48 1.1
-5 -3 -13 -2.08 1.01
5 3 13 -0.2 0.67
0 -4 -13 0.87 0.94
0 -4 -13 0.48 0.96
0 4 13 1.51 1.03
0 4 13 3.04 0.83
0 4 13 2.79 0.95
0 4 13 2.2 1.05
-1 -4 -13 5.93 0.92
-1 -4 -13 4.54 0.85
1 4 13 6.08 1.12
1 4 13 5.78 0.89
-2 -4 -13 2.74 0.96
-2 -4 -13 2.8 0.62
2 4 13 2.28 0.49
2 4 13 2.74 0.99
2 4 13 3.15 0.49
2 4 13 2.08 0.75
-3 -4 -13 9.02 1.12
3 4 13 8.92 1.1
-4 -4 -13 3.15 0.98
-4 -4 -13 0.98 1.02
4 4 13 3.02 0.84
-5 -4 -13 -0.18 1.04
-5 -4 -13 -0.9 0.87
5 4 13 -1.53 0.65
-6 -4 -13 2.66 0.99
-6 -4 -13 0.08 1.23
6 4 13 2.36 0.87
0 -5 -13 1.85 1.06
0 -5 -13 1.92 1.04
0 5 13 1.31 1.07
0 5 13 0.95 1.01
0 5 13 3.17 1.07
0 5 13 1.79 0.78
-1 -5 -13 -0.81 0.8
-1 -5 -13 1.19 0.87
1 5 13 0.74 0.72
1 5 13 1.06 0.93
1 5 13 -1.56 0.73
1 5 13 -0.24 0.84
-2 -5 -13 4.55 0.8
-2 -5 -13 6.48 1.03
2 5 13 5.23 0.78
2 5 13 6.13 0.73
2 5 13 6.99 0.99
2 5 13 4.79 1.1
-3 -5 -13 0.38 0.46
-3 -5 -13 0.18 0.77
-3 -5 -13 0.2 0.48
3 5 13 -1.26 0.89
3 5 13 0.77 0.71
3 5 13 1.04 0.3
3 5 13 0.22 0.26
-4 -5 -13 -0.01 0.77
-4 -5 -13 0.22 0.96
4 5 13 0.51 0.74
-5 -5 -13 1.72 1.11
-5 -5 -13 0.92 0.92
5 5 13 0.66 0.78
-6 -5 -13 1.12 1.27
-6 -5 -13 3.63 0.98
6 5 13 2.9 0.9
-1 -6 -13 3.36 1.07
-1 -6 -13 3.54 1.02
1 6 13 3.51 0.97
1 6 13 5.44 0.98
1 6 13 2.99 1.03
1 6 13 3.37 1.19
-2 -6 -13 0.02 0.77
-2 -6 -13 0.99 1
-2 -6 -13 -0.28 0.79
2 6 13 0.14 0.99
2 6 13 1.69 0.81
2 6 13 1.43 0.76
-3 -6 -13 3.47 0.74
-3 -6 -13 3.41 1.08
-3 -6 -13 3.03 0.76
3 6 13 3.02 0.68
3 6 13 3.36 1.07
3 6 13 2.82 0.62
3 6 13 1.65 0.82
-4 -6 -13 0.76 1.08
-4 -6 -13 0.47 0.54
-4 -6 -13 0.84 0.64
-4 -6 -13 -0.46 0.75
4 6 13 0.85 0.72
4 6 13 0.77 0.34
4 6 13 0.61 0.37
-5 -6 -13 2.31 0.77
-5 -6 -13 2.28 0.3
-5 -6 -13 3.21 1.21
5 6 13 2.68 0.91
6 6 13 1.36 0.83
-1 -7 -13 0.84 0.7
-1 -7 -13 2.23 1.12
-1 -7 -13 1.69 1.13
1 7 13 2.92 1.12
1 7 13 2.27 1.18
1 7 13 -0.3 1.02
1 7 13 2.01 0.81
-2 -7 -13 2.16 0.97
-2 -7 -13 1.53 0.61
-2 -7 -13 1.08 0.91
2 7 13 3.17 0.96
2 7 13 1.36 0.78
2 7 13 1.17 0.99
2 7 13 1.65 1.16
-3 -7 -13 4.12 0.92
-3 -7 -13 4.44 0.91
-3 -7 -13 7.15 0.94
3 7 13 3.53 1.17
3 7 13 7.59 0.99
3 7 13 5.03 1.01
-4 -7 -13 0.31 1.12
-4 -7 -13 1.75 0.73
4 7 13 0.55 0.66
4 7 13 0.5 0.72
-5 -7 -13 -0.35 1.29
-5 -7 -13 0.67 0.68
-5 -7 -13 1.5 0.69
5 7 13 0.24 0.56
5 7 13 1.29 0.8
5 7 13 1.38 0.75
3 8 13 -0.13 0.75
3 8 13 -0.24 1.04
3 8 13 -1.11 0.91
4 8 13 1.89 0.9
