#------------------------------------------------------------------------------
#$Date: 2022-07-01 09:54:08 +0300 (Fri, 01 Jul 2022) $
#$Revision: 276470 $
#$URL: file:///home/coder/svn-repositories/cod/cif/8/10/55/8105599.cif $
#------------------------------------------------------------------------------
#
# This file is available in the Crystallography Open Database (COD),
# http://www.crystallography.net/
#
# All data on this site have been placed in the public domain by the
# contributors.
#
data_8105599
loop_
_publ_author_name
'Hou, Bing-Jie'
'Osman, Ibrahim Omar'
'Hu, Dong-Cheng'
'Liu, Jia-Cheng'
_publ_section_title
;
 Crystal structure of
 catena-poly[tetraiodido-(\m2-1,4-bis(2-methyl-1H-imidazol-1-yl)benzene-\k2
 N:N&#x2032;)dimercury(II)], C14H14Hg2I4N4
;
_journal_issue                   2
_journal_name_full
'Zeitschrift f\"ur Kristallographie - New Crystal Structures'
_journal_page_first              231
_journal_page_last               232
_journal_paper_doi               10.1515/ncrs-2018-0271
_journal_volume                  234
_journal_year                    2019
_chemical_formula_sum            'C7 H7 Hg I2 N2'
_chemical_formula_weight         573.54
_space_group_crystal_system      monoclinic
_space_group_IT_number           14
_space_group_name_Hall           '-P 2ybc'
_space_group_name_H-M_alt        'P 1 21/c 1'
_atom_sites_solution_hydrogens   geom
_cell_angle_alpha                90
_cell_angle_beta                 96.838(5)
_cell_angle_gamma                90
_cell_formula_units_Z            4
_cell_length_a                   4.3592(11)
_cell_length_b                   20.116(5)
_cell_length_c                   12.713(3)
_cell_measurement_reflns_used    2742
_cell_measurement_temperature    296(2)
_cell_measurement_theta_max      26.74
_cell_measurement_theta_min      2.59
_cell_volume                     1106.9(5)
_computing_cell_refinement
;
CrysAlisPro, Agilent Technologies,
Version 1.171.36.28 (release 01-02-2013 CrysAlis171 .NET)
(compiled Feb  1 2013,16:14:44)
;
_computing_data_collection
;
CrysAlisPro, Agilent Technologies,
Version 1.171.36.28 (release 01-02-2013 CrysAlis171 .NET)
(compiled Feb  1 2013,16:14:44)
;
_computing_data_reduction
;
CrysAlisPro, Agilent Technologies,
Version 1.171.36.28 (release 01-02-2013 CrysAlis171 .NET)
(compiled Feb  1 2013,16:14:44)
;
_computing_structure_refinement  'SHELXL-2014/7 (Sheldrick, 2014)'
_computing_structure_solution    'SHELXL-2014/7 (Sheldrick, 2014)'
_diffrn_ambient_temperature      296(2)
_diffrn_measured_fraction_theta_full 0.998
_diffrn_measured_fraction_theta_max 0.998
_diffrn_measurement_device_type  'Bruker APEX-II CCD'
_diffrn_measurement_method       '\f and \w scans'
_diffrn_radiation_type           MoK\a
_diffrn_radiation_wavelength     0.71073
_diffrn_reflns_av_R_equivalents  0.0411
_diffrn_reflns_av_unetI/netI     0.0421
_diffrn_reflns_Laue_measured_fraction_full 0.998
_diffrn_reflns_Laue_measured_fraction_max 0.998
_diffrn_reflns_limit_h_max       4
_diffrn_reflns_limit_h_min       -5
_diffrn_reflns_limit_k_max       23
_diffrn_reflns_limit_k_min       -24
_diffrn_reflns_limit_l_max       13
_diffrn_reflns_limit_l_min       -15
_diffrn_reflns_number            6289
_diffrn_reflns_point_group_measured_fraction_full 0.998
_diffrn_reflns_point_group_measured_fraction_max 0.998
_diffrn_reflns_theta_full        25.242
_diffrn_reflns_theta_max         25.487
_diffrn_reflns_theta_min         1.905
_exptl_absorpt_coefficient_mu    19.436
_exptl_absorpt_correction_T_max  0.025
_exptl_absorpt_correction_T_min  0.011
_exptl_absorpt_correction_type   multi-scan
_exptl_absorpt_process_details   sadabs
_exptl_crystal_colour            yellow
_exptl_crystal_density_diffrn    3.442
_exptl_crystal_description       block
_exptl_crystal_F_000             996
_exptl_crystal_size_max          0.250
_exptl_crystal_size_mid          0.220
_exptl_crystal_size_min          0.190
_refine_diff_density_max         1.855
_refine_diff_density_min         -2.184
_refine_diff_density_rms         0.239
_refine_ls_extinction_coef       .
_refine_ls_extinction_method     none
_refine_ls_goodness_of_fit_ref   1.018
_refine_ls_hydrogen_treatment    constr
_refine_ls_matrix_type           full
_refine_ls_number_parameters     110
_refine_ls_number_reflns         2054
_refine_ls_number_restraints     0
_refine_ls_restrained_S_all      1.018
_refine_ls_R_factor_all          0.0419
_refine_ls_R_factor_gt           0.0362
_refine_ls_shift/su_max          0.000
_refine_ls_shift/su_mean         0.000
_refine_ls_structure_factor_coef Fsqd
_refine_ls_weighting_details
'w=1/[\s^2^(Fo^2^)+(0.0100P)^2^+20.0000P] where P=(Fo^2^+2Fc^2^)/3'
_refine_ls_weighting_scheme      calc
_refine_ls_wR_factor_gt          0.0841
_refine_ls_wR_factor_ref         0.0863
_reflns_Friedel_coverage         0.000
_reflns_Friedel_fraction_full    .
_reflns_Friedel_fraction_max     .
_reflns_number_gt                1799
_reflns_number_total             2054
_reflns_threshold_expression     'I > 2\s(I)'
_cod_data_source_file            suppl_ncrs-2018-0271_suppl.cif
_cod_data_source_block           1
_cod_original_sg_symbol_H-M      'P 21/c'
_cod_database_code               8105599
_shelx_space_group_comment
;
The symmetry employed for this shelxl refinement is uniquely defined
by the following loop, which should always be used as a source of
symmetry information in preference to the above space-group names.
They are only intended as comments.
;
_shelx_estimated_absorpt_t_min   0.085
_shelx_estimated_absorpt_t_max   0.120
_shelx_res_file
;

    1.res created by SHELXL-2014/7

TITL 20151104LZK32_0m in P2(1)/c
CELL 0.71073 4.3592 20.1161 12.7133 90 96.8382 90
ZERR 4 0.0011 0.0052 0.0032 0 0.0046 0
LATT 1
SYMM -X,0.5+Y,0.5-Z
SFAC C H Hg I N
UNIT 28 28 4 8 8
EQIV $1 +X,0.5-Y,-0.5+Z
EQIV $2 -1+X,+Y,+Z
EQIV $3 1-X,1-Y,1-Z

L.S. 8
PLAN  20
SIZE 0.25 0.22 0.19
TEMP 23
HTAB C7 I2_$3
HTAB C4 I1_$2
HTAB C3 I1_$1
BOND $H
HTAB
CONF
fmap 2
acta
OMIT -3 51
REM <olex2.extras>
REM <HklSrc "%.\\1.hkl"
REM </olex2.extras>

WGHT    0.010000   20.000000
FVAR       0.07273
C1    1    0.125518    0.478977    0.099227    11.00000    0.03493    0.02357 =
         0.03779    0.00137    0.00804   -0.00378
C2    1   -0.030133    0.538538    0.086888    11.00000    0.05477    0.02946 =
         0.03344   -0.00235    0.00785    0.00391
AFIX  43
H2    2   -0.048742    0.564936    0.145847    11.00000   -1.20000
AFIX   0
C3    1    0.158157    0.440595    0.011407    11.00000    0.04460    0.02089 =
         0.04010    0.00186    0.01044    0.00618
AFIX  43
H3    2    0.266525    0.400717    0.018754    11.00000   -1.20000
AFIX   0
C4    1    0.037586    0.341587    0.201785    11.00000    0.06689    0.04194 =
         0.03898    0.00862   -0.00316   -0.01742
AFIX 137
H4A   2   -0.016721    0.313108    0.257270    11.00000   -1.50000
H4B   2    0.155000    0.316842    0.155872    11.00000   -1.50000
H4C   2   -0.147049    0.358275    0.161788    11.00000   -1.50000
AFIX   0
C5    1    0.224712    0.397842    0.248631    11.00000    0.03986    0.03373 =
         0.03602    0.00783    0.00778    0.00445
C6    1    0.517686    0.460112    0.357361    11.00000    0.05285    0.04105 =
         0.02894   -0.00481   -0.00313    0.00270
AFIX  43
H6    2    0.644493    0.473822    0.417464    11.00000   -1.20000
AFIX   0
C7    1    0.440134    0.497431    0.271999    11.00000    0.05553    0.03118 =
         0.03624   -0.00202    0.00476   -0.00307
AFIX  43
H7    2    0.497934    0.541275    0.262058    11.00000   -1.20000
AFIX   0
HG1   3    0.397786    0.313466    0.469683    11.00000    0.05723    0.04851 =
         0.03943    0.00680    0.00754    0.01753
I1    4    0.605146    0.204750    0.386639    11.00000    0.04243    0.03740 =
         0.06495   -0.00364    0.00988    0.00186
I2    4    0.006102    0.359804    0.600395    11.00000    0.02994    0.06718 =
         0.03890   -0.01537    0.00018   -0.00010
N1    5    0.383009    0.398101    0.343987    11.00000    0.05500    0.03928 =
         0.03364    0.00562   -0.00281    0.00825
N2    5    0.258534    0.458511    0.201775    11.00000    0.04111    0.02439 =
         0.03193    0.00442   -0.00303    0.00185
HKLF 4

REM  20151104LZK32_0m in P2(1)/c
REM R1 =  0.0362 for    1799 Fo > 4sig(Fo)  and  0.0419 for all    2054 data
REM    110 parameters refined using      0 restraints

END

WGHT      0.0420      5.1590

REM Instructions for potential hydrogen bonds
HTAB C3 I1_$1
HTAB C4 I1_$2
HTAB C7 I2_$3

REM Highest difference peak  1.855,  deepest hole -2.184,  1-sigma level  0.239
Q1    1   0.2425  0.2921  0.4371  11.00000  0.05    1.86
Q2    1   0.5555  0.3111  0.4396  11.00000  0.05    1.11
Q3    1   0.5057  0.3725  0.4724  11.00000  0.05    0.87
Q4    1   0.0140  0.3884  0.5414  11.00000  0.05    0.76
Q5    1   0.4935  0.2774  0.3161  11.00000  0.05    0.75
Q6    1   0.0671  0.2772  0.3861  11.00000  0.05    0.74
Q7    1   0.0902  0.4240  0.6413  11.00000  0.05    0.74
Q8    1   0.4746  0.2883  0.5230  11.00000  0.05    0.70
Q9    1   0.0137  0.3553  0.1246  11.00000  0.05    0.69
Q10   1   0.0186  0.4138  0.6188  11.00000  0.05    0.66
Q11   1   0.1017  0.6197  0.0958  11.00000  0.05    0.63
Q12   1   0.4637  0.5613  0.4155  11.00000  0.05    0.63
Q13   1   0.5497  0.6215  0.1840  11.00000  0.05    0.62
Q14   1   0.3770  0.2691  0.3940  11.00000  0.05    0.62
Q15   1  -0.0560  0.6358  0.1448  11.00000  0.05    0.61
Q16   1   0.0000  0.2873  0.4797  11.00000  0.05    0.61
Q17   1   0.6067  0.2515  0.4167  11.00000  0.05    0.60
Q18   1   0.7229  0.4209  0.5132  11.00000  0.05    0.60
Q19   1   0.3038  0.2802  0.6229  11.00000  0.05    0.60
Q20   1   0.5692  0.2415  0.5561  11.00000  0.05    0.59
;
_shelx_hkl_file
;
  -1   0   0  147.09    7.75
  -1   0   0  149.57    7.78
  -2   0   0  332.29   17.22
  -2   0   0  326.42   17.14
  -3   0   0  166.34    8.59
  -3   0   0  160.61    8.73
  -4   0   0    7.11    0.86
  -5   0   0   73.39    4.37
   0  -1   0   -0.61    0.00
   0   1   0   -0.61    0.01
   0   1   0   -0.62    0.00
  -1  -1   0   48.25    2.53
   1  -1   0   47.51    2.51
  -1   1   0   47.46    2.55
  -2  -1   0    9.47    0.65
  -2  -1   0    8.86    0.58
  -2   1   0    9.46    0.55
  -2   1   0    8.51    0.65
  -3  -1   0    9.62    0.64
  -3  -1   0   10.04    0.80
  -3   1   0    9.46    0.60
  -3   1   0    8.74    0.76
  -4  -1   0   -0.42    0.34
  -4   1   0    0.01    0.36
  -5  -1   0    1.30    0.64
  -5   1   0    0.27    0.52
   0   2   0  408.25   21.30
   1  -2   0  264.91   13.78
  -1  -2   0  268.55   13.81
  -1   2   0  261.78   13.82
  -2  -2   0   34.25    2.05
  -2  -2   0   41.03    2.14
  -2   2   0   38.27    2.01
  -2   2   0   37.84    2.12
  -3  -2   0   48.01    2.71
  -3  -2   0   47.21    2.58
  -3   2   0   46.93    2.51
  -3   2   0   45.52    2.68
  -4  -2   0   28.65    1.85
  -4   2   0   26.60    1.81
  -5  -2   0   20.16    1.65
  -5   2   0   20.11    1.66
   0  -3   0   -0.53    0.05
   0   3   0   -0.68    0.08
  -1  -3   0   32.34    1.74
   1  -3   0   30.01    1.69
  -1   3   0   32.97    1.74
  -2  -3   0    0.29    0.15
   2  -3   0    0.27    0.08
  -2   3   0    0.75    0.23
  -3  -3   0    2.54    0.44
  -3  -3   0    2.68    0.35
  -3   3   0    2.56    0.23
  -3   3   0    2.67    0.42
  -4  -3   0    0.53    0.45
  -4   3   0   -0.04    0.37
  -5  -3   0    0.19    0.54
  -5   3   0    0.65    0.59
  -1  -4   0  245.69   12.53
   1  -4   0  229.89   12.47
  -1   4   0  246.82   12.52
  -1   4   0  237.09   12.61
   2  -4   0   66.74    3.51
  -2  -4   0   66.06    3.59
  -2   4   0   66.75    3.61
  -3  -4   0   28.92    1.68
  -3  -4   0   27.02    1.79
  -3   4   0   30.39    1.77
  -4  -4   0   34.43    2.28
  -4   4   0   38.17    2.29
  -5  -4   0    4.94    0.92
  -5   4   0    5.30    0.85
   0  -5   0   -0.13    0.08
   0   5   0    0.00    0.08
   0   5   0   -0.09    0.14
  -1  -5   0    8.20    0.55
   1  -5   0    7.94    0.49
  -1   5   0    8.69    0.56
  -1   5   0    8.52    0.66
  -2  -5   0   49.35    2.71
   2  -5   0   48.74    2.62
  -2   5   0   49.24    2.71
  -3  -5   0   32.56    1.87
  -3  -5   0   31.65    1.97
  -3   5   0   32.63    1.94
  -4  -5   0    2.92    0.58
  -4   5   0    1.25    0.45
  -5  -5   0    0.80    0.59
  -5   5   0    0.40    0.56
   0  -6   0  451.37   24.98
   0   6   0  501.73   24.86
   1  -6   0   21.91    1.28
  -1  -6   0   24.04    1.35
  -1   6   0   24.87    1.36
  -1   6   0   22.96    1.43
   2  -6   0  101.75    5.42
  -2  -6   0  101.58    5.50
  -2   6   0  103.90    5.67
  -2   6   0  104.90    5.51
  -3  -6   0   25.63    1.66
  -3  -6   0   25.21    1.54
  -3   6   0   26.07    1.60
  -4  -6   0    1.85    0.55
  -4  -6   0    0.64    0.34
  -4   6   0    0.75    0.44
  -5  -6   0   13.26    1.43
  -5   6   0   13.28    1.30
   0  -7   0    0.36    0.15
   0   7   0    0.14    0.10
   0   7   0   -0.08    0.21
  -1  -7   0   44.84    2.48
   1  -7   0   44.23    2.42
  -1   7   0   44.60    2.59
  -1   7   0   46.84    2.52
   2  -7   0   35.29    1.96
  -2  -7   0   33.87    2.03
  -2   7   0   36.65    2.21
  -2   7   0   37.43    2.04
  -3  -7   0   24.39    1.54
  -3   7   0   25.88    1.58
  -4  -7   0    2.90    0.61
  -4  -7   0    3.36    0.53
  -4   7   0    3.45    0.61
  -5  -7   0    0.36    0.55
  -5   7   0   -0.10    0.53
  -5   7   0    0.33    0.80
   0  -8   0  292.31   15.21
   0   8   0  289.11   15.15
   1  -8   0  486.85   24.53
  -1  -8   0  506.96   24.60
  -1   8   0  419.64   24.66
   2  -8   0    2.05    0.26
  -2  -8   0    2.49    0.37
  -2   8   0    2.02    0.33
  -2   8   0    2.81    0.56
  -3  -8   0    0.32    0.27
  -3   8   0    0.32    0.31
  -3   8   0    0.79    0.55
  -4  -8   0   72.25    3.92
  -4  -8   0   68.59    4.04
  -4   8   0   68.38    4.30
  -4   8   0   67.77    3.96
  -5  -8   0    4.25    0.84
  -5   8   0    2.20    0.71
  -5   8   0    3.42    1.17
   0  -9   0    0.13    0.16
   0   9   0   -0.21    0.26
   0   9   0    0.11    0.11
   1  -9   0    7.78    0.54
  -1  -9   0    7.73    0.60
  -1   9   0    7.36    0.62
  -1   9   0    6.89    0.68
  -2  -9   0   25.01    1.51
   2  -9   0   22.92    1.40
  -2   9   0   25.86    1.51
  -2   9   0   25.31    1.69
  -3  -9   0    1.18    0.37
  -3   9   0    1.09    0.54
  -3   9   0    1.50    0.39
  -4  -9   0    2.34    0.64
  -4  -9   0    2.08    0.49
  -4   9   0    1.60    0.51
  -4   9   0    1.74    0.78
  -5  -9   0    0.98    0.65
  -5   9   0    0.18    0.55
  -5   9   0    0.18    0.83
   0 -10   0  132.06    6.73
   0  10   0  120.86    6.64
   1 -10   0  444.56   21.90
  -1 -10   0  432.47   21.96
  -1  10   0  381.89   21.91
  -2 -10   0   10.84    0.82
   2 -10   0    9.95    0.71
  -2  10   0   10.68    0.97
  -2  10   0   12.91    0.86
  -3 -10   0    0.27    0.33
  -3  10   0    0.80    0.58
  -3  10   0    0.59    0.34
  -4 -10   0   64.92    4.01
  -4 -10   0   71.10    3.92
  -4  10   0   67.96    4.29
  -4  10   0   70.11    3.95
  -5 -10   0    2.18    0.77
  -5  10   0    1.11    0.89
  -5  10   0    1.98    0.67
   0 -11   0    0.15    0.19
   0  11   0   -0.36    0.26
   0  11   0    0.15    0.14
  -1 -11   0    1.21    0.31
   1 -11   0    0.89    0.23
  -1  11   0    1.22    0.29
  -1  11   0    0.91    0.35
  -2 -11   0    7.74    0.68
   2 -11   0    7.37    0.58
  -2  11   0    7.83    0.91
  -2  11   0    8.01    0.72
  -3 -11   0    9.81    0.92
  -3  11   0   10.63    1.13
  -3  11   0   12.64    0.96
  -4 -11   0    3.69    0.61
  -4 -11   0    3.08    0.66
  -4  11   0    2.29    0.83
  -4  11   0    2.66    0.59
  -5 -11   0    0.65    0.66
  -5  11   0   -0.33    0.91
   0 -12   0  130.83    6.59
   0  12   0  126.79    6.74
   0  12   0  111.84    6.46
  -1 -12   0    3.16    0.46
   1 -12   0    3.09    0.40
  -1  12   0    3.92    0.42
  -2 -12   0    2.76    0.46
  -2  12   0    2.48    0.59
  -2  12   0    1.34    0.40
  -3 -12   0   19.62    1.37
  -3  12   0   19.73    1.59
  -3  12   0   19.78    1.38
  -4 -12   0    2.27    0.63
  -4 -12   0    1.38    0.50
  -4  12   0    0.84    0.50
  -4  12   0    2.12    0.85
  -5  12   0    3.42    1.09
   0 -13   0    0.04    0.24
   0  13   0    0.71    0.43
   0  13   0    0.31    0.17
  -1 -13   0   36.01    2.22
   1 -13   0   38.86    2.17
  -1  13   0   37.49    2.12
   2 -13   0   61.45    3.56
  -2 -13   0   72.74    3.72
  -2  13   0   67.28    3.84
  -2  13   0   60.26    3.64
  -3 -13   0   35.12    2.23
  -3  13   0   35.11    2.42
  -3  13   0   37.19    2.24
  -4 -13   0   10.15    1.04
  -4 -13   0    9.58    1.14
  -4  13   0   10.16    1.43
  -4  13   0   12.17    1.08
   0 -14   0    0.58    0.29
   0  14   0    0.89    0.22
   0  14   0    1.50    0.53
  -1 -14   0   59.61    3.42
   1 -14   0   58.77    3.37
  -1  14   0   62.43    3.32
  -2 -14   0    6.08    0.70
   2 -14   0    5.85    0.60
  -2  14   0    6.52    0.89
  -2  14   0    6.64    0.70
  -3 -14   0   12.44    1.09
  -3  14   0   13.45    1.11
  -3  14   0   12.93    1.34
  -4 -14   0    5.76    0.93
  -4 -14   0    4.60    0.75
  -4  14   0    4.54    1.01
   0 -15   0   -0.11    0.25
   0  15   0    0.00    0.45
  -1 -15   0   41.17    2.52
   1 -15   0   43.90    2.49
  -1  15   0   42.45    2.40
   2 -15   0   60.07    3.67
  -2 -15   0   65.36    3.80
  -2  15   0   73.26    4.01
  -2  15   0   68.63    3.72
  -3 -15   0   25.92    1.71
  -3  15   0   26.97    1.99
  -3  15   0   22.47    1.67
  -4 -15   0    8.20    0.98
  -4  15   0    6.70    1.17
   0 -16   0   40.18    2.73
   0  16   0   53.96    2.92
   1 -16   0   31.19    1.99
  -1 -16   0   32.36    2.05
  -1  16   0   33.50    1.90
  -2 -16   0    3.25    0.58
   2 -16   0    2.37    0.48
  -2  16   0    4.95    0.89
  -2  16   0    3.96    0.55
  -3 -16   0    3.68    0.62
  -3  16   0    0.93    0.63
  -3  16   0    1.62    0.72
  -4 -16   0    4.62    0.83
  -4  16   0    4.35    1.00
   0 -17   0    0.47    0.39
  -1 -17   0    8.01    0.88
   1 -17   0    8.34    0.85
  -1  17   0    9.82    0.73
  -1  17   0    8.21    1.10
  -2 -17   0   16.18    1.27
  -2  17   0   15.40    1.14
  -2  17   0   19.26    1.56
  -3 -17   0   10.15    1.09
  -3  17   0    9.29    1.22
  -4 -17   0   -0.12    0.51
  -4  17   0    0.11    0.69
   0 -18   0   72.54    4.15
   1 -18   0    1.80    0.49
  -1 -18   0    1.41    0.51
  -1  18   0    2.76    0.75
  -1  18   0    2.27    0.40
  -2 -18   0    8.59    0.95
  -2  18   0    9.78    1.27
  -2  18   0    8.65    0.80
  -3 -18   0   16.90    1.42
  -3  18   0   17.12    1.65
  -4 -18   0    0.18    0.57
  -4  18   0    0.46    0.73
   0 -19   0    0.18    0.45
  -1 -19   0   -0.25    0.36
   1 -19   0    0.08    0.37
  -1  19   0    0.48    0.68
  -1  19   0    0.55    0.30
  -2 -19   0   -0.06    0.41
  -2  19   0   -0.41    0.55
  -3 -19   0    2.47    0.62
  -3  19   0    1.77    0.83
   0 -20   0   19.49    1.54
  -1 -20   0    2.11    0.58
   1 -20   0    1.54    0.53
  -1  20   0    1.64    0.37
  -1  20   0    2.09    0.78
  -2 -20   0    0.33    0.50
  -2  20   0    0.10    0.31
  -3 -20   0    5.92    0.93
  -3  20   0    4.50    1.00
   0 -21   0    0.29    0.45
   1 -21   0    5.52    0.82
  -1 -21   0    5.15    0.82
  -1  21   0    7.45    1.19
  -3 -21   0   10.43    1.21
  -3  21   0   10.22    1.38
   0 -22   0    2.91    0.74
   1 -22   0    0.14    0.49
  -1 -22   0    0.26    0.49
  -1  22   0    0.59    0.84
  -2 -22   0    4.44    0.83
  -2  22   0    1.06    0.66
  -3 -22   0    0.36    0.53
  -3  22   0    1.90    0.96
   0 -23   0    0.06    0.53
   1 -23   0   14.08    1.48
  -1 -23   0   15.82    1.58
  -1  23   0   18.66    1.72
  -2 -23   0   19.45    1.64
  -2  23   0   20.11    1.86
   0 -24   0    2.87    0.75
  -1 -24   0    0.42    0.58
   1 -24   0    0.57    0.58
  -1  24   0    0.59    0.84
  -2 -24   0    1.20    0.70
  -2  24   0    0.73    0.92
   0 -25   0   -0.44    0.60
  -1 -25   0    6.08    1.07
   1 -25   0    5.66    1.02
  -1  25   0    8.72    1.31
   0 -26   0   -0.40    0.57
  -5   0   1   -0.06    0.55
  -4   0   1   -0.05    0.36
  -3   0   1    0.01    0.17
  -3   0   1    0.14    0.27
  -2   0   1    0.22    0.17
   1   0  -1    1.62    0.18
   0   0  -1   -0.55    0.03
   0   0  -1   -0.58    0.03
  -1   0  -1   -0.03    0.10
  -1   0  -1   -0.02    0.05
  -2   0  -1   -0.08    0.19
  -2   0  -1   -0.11    0.08
  -3   0  -1    1.94    0.43
  -3   0  -1    0.19    0.14
  -4   0  -1    0.46    0.41
  -5   0  -1    0.25    0.52
  -5  -1   1    6.30    0.93
  -5   1   1    5.97    0.90
  -4  -1   1    9.22    0.95
  -4   1   1    8.37    0.89
  -3  -1   1    9.89    0.81
  -3  -1   1   10.98    0.72
  -3   1   1   10.41    0.68
  -3   1   1   10.14    0.80
   2  -1  -1  114.54    6.06
  -2  -1   1  114.97    6.09
  -2  -1   1  117.39    6.12
  -2   1   1  113.76    6.11
   1  -1  -1   69.84    3.60
   1   1  -1   66.98    3.60
  -1   1   1   67.32    3.59
   0  -1  -1   99.17    5.04
   0  -1  -1   95.13    5.03
   0   1  -1   93.95    5.04
  -1  -1  -1   22.50    1.22
  -1  -1  -1   22.27    1.27
  -1   1  -1   22.25    1.27
  -1   1  -1   23.30    1.19
  -2  -1  -1   13.81    0.88
  -2  -1  -1   12.88    0.77
  -2   1  -1   13.33    0.73
  -2   1  -1   13.27    0.87
  -3  -1  -1   30.90    1.91
  -3  -1  -1   31.00    1.74
  -3   1  -1   32.12    1.93
  -3   1  -1   31.81    1.70
  -4  -1  -1    0.59    0.46
  -4   1  -1    0.24    0.41
  -5  -1  -1    4.61    0.84
  -5   1  -1    5.20    0.93
  -5  -2   1    2.17    0.69
  -5   2   1    2.19    0.66
  -4  -2   1   21.46    1.53
  -4   2   1   20.64    1.47
  -3  -2   1   23.71    1.48
  -3  -2   1   23.39    1.38
  -3   2   1   23.82    1.45
  -3   2   1   22.26    1.32
   2  -2  -1  438.55   22.52
  -2  -2   1  429.70   22.55
  -2   2   1  430.06   22.57
   1  -2  -1   22.32    1.25
  -1  -2   1   22.97    1.27
  -1   2   1   22.40    1.24
   0  -2  -1   20.45    0.98
   0   2  -1   17.21    1.00
   0   2  -1   19.09    0.97
   0   2  -1   15.20    0.96
  -1  -2  -1  291.51   14.73
  -1  -2  -1  279.89   14.70
  -1   2  -1  276.10   14.73
  -2  -2  -1   54.19    3.00
  -2  -2  -1   54.62    2.92
  -2   2  -1   54.40    3.00
  -3  -2  -1  189.46   10.08
  -3  -2  -1  190.78    9.93
  -3   2  -1  193.52   10.08
  -3   2  -1  184.07    9.86
  -4  -2  -1   -0.13    0.38
  -4   2  -1    0.73    0.45
  -5  -2  -1    5.41    0.91
  -5   2  -1    6.53    0.99
  -5  -3   1   16.58    1.55
  -5   3   1   16.83    1.46
  -4  -3   1    8.73    0.95
  -4   3   1   10.74    1.02
  -3  -3   1    3.32    0.49
  -3  -3   1    4.34    0.46
  -3   3   1    4.52    0.53
  -3   3   1    3.73    0.35
  -2  -3   1  249.69   13.66
   2  -3  -1  262.46   13.64
  -2   3   1  271.35   13.68
   1  -3  -1    7.24    0.47
  -1  -3   1    6.98    0.50
  -1   3   1    6.78    0.45
  -1   3   1    7.28    0.57
   0  -3  -1  430.20   22.32
   0   3  -1  426.94   22.43
  -1  -3  -1   54.24    2.94
   1  -3   1   54.18    2.88
  -1   3  -1   57.71    2.97
  -2  -3  -1    4.01    0.45
  -2  -3  -1    4.20    0.36
  -2   3  -1    4.54    0.45
  -3  -3  -1  102.61    5.50
  -3  -3  -1  103.72    5.64
  -3   3  -1  103.59    5.62
  -4  -3  -1    0.41    0.46
  -4   3  -1    0.74    0.47
  -5  -3  -1    7.64    1.08
  -5   3  -1    6.89    0.98
  -5  -4   1    4.19    0.80
  -5   4   1    1.98    0.63
  -4  -4   1   15.96    1.19
  -4  -4   1   15.76    1.31
  -4   4   1   18.42    1.29
   3  -4  -1  111.73    6.13
  -3  -4   1  112.94    6.23
  -3  -4   1  122.04    6.34
  -3   4   1  121.39    6.29
   2  -4  -1  367.36   19.40
  -2  -4   1  362.72   19.43
  -2   4   1  386.09   19.43
  -1  -4   1  459.38   22.94
   1  -4  -1  422.74   23.00
  -1   4   1  426.85   23.01
  -1   4   1  451.79   22.89
   0   4   1   53.09    3.00
   0   4  -1   55.74    2.96
   1  -4   1  223.61   11.79
  -1  -4  -1  230.79   11.86
  -1   4  -1  226.63   11.88
  -2  -4  -1  266.54   13.91
  -2  -4  -1  266.17   13.97
  -2   4  -1  264.88   13.95
  -3  -4  -1  197.57   10.44
  -3  -4  -1  199.92   10.57
  -3   4  -1  197.60   10.54
  -4  -4  -1   15.19    1.25
  -4   4  -1   16.13    1.27
  -5  -4  -1    1.41    0.68
  -5   4  -1    1.55    0.60
  -5  -5   1   -0.15    0.57
  -5   5   1    0.34    0.52
  -4  -5   1    1.07    0.35
  -4  -5   1    1.13    0.50
  -4   5   1    0.97    0.45
  -3  -5   1   39.59    2.30
  -3   5   1   41.27    2.34
  -2  -5   1   34.76    1.98
   2  -5  -1   34.11    1.93
  -2   5   1   35.71    1.95
  -2   5   1   34.42    2.12
  -1  -5   1  224.43   11.91
   1  -5  -1  233.04   11.87
  -1   5   1  214.92   11.98
  -1   5   1  236.33   11.87
   0  -5  -1   15.95    0.88
   0   5  -1   13.93    0.93
   0   5  -1   16.50    0.89
   0   5   1   12.73    0.98
   1  -5   1   10.35    0.59
  -1  -5  -1    9.70    0.65
  -1   5  -1   11.34    0.71
  -2  -5  -1   69.44    3.74
  -2   5  -1   68.91    3.77
  -3  -5  -1   21.71    1.35
  -3  -5  -1   20.95    1.45
  -3   5  -1   24.11    1.46
  -4  -5  -1   14.79    1.20
  -4   5  -1   13.43    1.18
  -5  -5  -1    0.25    0.60
  -5   5  -1   -0.30    0.53
  -5  -6   1    2.11    0.74
  -5   6   1    0.62    0.56
  -4  -6   1    0.71    0.46
  -4  -6   1    0.76    0.36
  -4   6   1    0.28    0.41
  -3  -6   1   88.41    4.97
  -3   6   1   94.97    4.99
  -2  -6   1  171.46    9.22
   2  -6  -1  174.53    9.18
  -2   6   1  178.09    9.19
  -2   6   1  174.20    9.38
   1  -6  -1  331.84   17.19
  -1  -6   1  354.09   17.25
  -1   6   1  327.16   17.21
  -1   6   1  306.39   17.31
   0  -6  -1    0.57    0.16
   0   6  -1    1.07    0.18
   0   6  -1    0.61    0.25
   0   6   1    1.11    0.32
   1  -6   1    3.89    0.30
  -1  -6  -1    4.31    0.37
  -1   6  -1    4.79    0.53
  -1   6  -1    4.30    0.41
  -2  -6  -1  321.62   16.60
  -2   6  -1  312.57   16.62
  -3  -6  -1   38.32    2.23
  -3  -6  -1   39.42    2.36
  -3   6  -1   39.67    2.31
  -4  -6  -1   47.05    2.82
  -4   6  -1   43.69    2.72
  -5  -6  -1    0.40    0.61
  -5   6  -1    1.56    0.66
  -5  -7   1    9.06    1.20
  -5   7   1   10.33    1.59
  -4  -7   1    4.99    0.76
  -4  -7   1    4.21    0.58
  -4   7   1    4.68    1.00
  -4   7   1    3.99    0.62
  -3  -7   1   57.17    3.15
  -3   7   1   54.90    3.13
  -3   7   1   55.35    3.39
  -2  -7   1    6.02    0.52
   2  -7  -1    5.94    0.47
  -2   7   1    5.92    0.50
  -2   7   1    5.28    0.69
   1  -7  -1  122.72    6.28
  -1  -7   1  125.84    6.33
  -1   7   1  121.15    6.42
  -1   7   1  106.01    6.29
   0   7   1   73.43    3.91
   0   7  -1   67.09    3.83
  -1  -7  -1    1.12    0.23
   1  -7   1    1.06    0.17
  -1   7  -1    0.90    0.28
  -1   7  -1    1.34    0.32
   2  -7   1  154.32    8.38
  -2  -7  -1  162.84    8.51
  -2   7  -1  164.38    8.53
  -2   7  -1  161.51    8.67
  -3  -7  -1    1.14    0.42
  -3  -7  -1    0.86    0.30
  -3   7  -1    1.27    0.36
  -4  -7  -1   13.01    1.12
  -4  -7  -1   11.62    1.35
  -4   7  -1   10.44    1.08
  -5  -7  -1    9.28    1.20
  -5   7  -1    7.49    1.02
  -5  -8   1    1.26    0.69
  -5   8   1    0.09    0.81
  -5   8   1    0.83    0.54
  -4  -8   1    8.50    1.00
  -4  -8   1    9.38    0.85
  -4   8   1    6.95    1.13
  -4   8   1    8.45    0.87
  -3  -8   1   12.31    0.95
  -3   8   1   12.12    1.16
  -3   8   1   13.83    0.95
   2  -8  -1    7.38    0.58
  -2  -8   1    7.99    0.66
  -2   8   1    9.00    0.62
  -2   8   1    7.87    0.82
  -1  -8   1  165.77    8.24
   1  -8  -1  163.70    8.19
  -1   8   1  151.05    8.33
  -1   8   1  141.47    8.18
   0  -8  -1    5.48    0.42
   0   8   1    4.57    0.62
   0   8  -1    4.19    0.54
   1  -8   1    5.80    0.44
  -1  -8  -1    5.47    0.48
  -1   8  -1    6.85    0.60
  -1   8  -1    6.47    0.61
   2  -8   1   27.79    1.65
  -2  -8  -1   31.81    1.79
  -2   8  -1   31.42    1.81
  -2   8  -1   32.02    1.97
  -3  -8  -1    0.22    0.33
  -3  -8  -1    0.19    0.27
  -3   8  -1    0.41    0.57
  -3   8  -1    0.50    0.30
  -4  -8  -1    7.53    0.95
  -4  -8  -1    8.97    0.83
  -4   8  -1    7.99    0.90
  -5  -8  -1    1.91    0.68
  -5   8  -1    2.13    1.07
  -5   8  -1    2.03    0.71
  -5  -9   1    3.17    0.80
  -5   9   1    4.45    1.24
  -4  -9   1    7.73    0.95
  -4  -9   1    8.19    0.85
  -4   9   1    6.90    1.14
  -4   9   1    8.71    0.90
  -3  -9   1    6.16    0.67
  -3   9   1    7.68    0.98
  -3   9   1    6.52    0.65
   2  -9  -1    2.09    0.30
  -2  -9   1    2.14    0.37
  -2   9   1    1.97    0.34
  -2   9   1    1.71    0.47
   1  -9  -1   38.99    2.14
  -1  -9   1   40.25    2.20
  -1   9   1   37.39    2.12
  -1   9   1   36.81    2.29
   0   9   1   60.53    3.59
   0   9  -1   65.36    3.54
  -1  -9  -1  120.66    6.32
   1  -9   1  121.31    6.26
  -1   9  -1  109.79    6.35
  -1   9  -1  121.24    6.42
  -2  -9  -1   36.57    2.06
   2  -9   1   32.10    1.93
  -2   9  -1   37.97    2.10
  -2   9  -1   36.80    2.24
  -3  -9  -1    0.70    0.39
  -3  -9  -1    0.80    0.32
  -3   9  -1    0.61    0.57
  -3   9  -1    0.48    0.35
  -4  -9  -1    2.92    0.53
  -4  -9  -1    2.25    0.66
  -4   9  -1    2.77    0.58
  -4   9  -1    3.99    0.99
  -5  -9  -1    4.83    0.97
  -5   9  -1    4.17    0.86
  -5   9  -1    3.94    1.23
  -5 -10   1    3.08    0.78
  -5  10   1    3.45    1.09
  -4 -10   1    4.23    0.74
  -4 -10   1    5.40    0.73
  -4  10   1    6.59    1.16
  -4  10   1    5.98    0.74
  -3 -10   1   43.90    2.65
  -3  10   1   47.04    2.64
  -3  10   1   46.09    2.92
  -2 -10   1    4.49    0.56
   2 -10  -1    4.87    0.50
  -2  10   1    6.96    0.58
  -2  10   1    4.98    0.72
   1 -10  -1   17.88    1.12
  -1 -10   1   19.11    1.20
  -1  10   1   18.95    1.10
  -1  10   1   17.44    1.30
   0 -10  -1   28.25    1.55
   0  10  -1   25.94    1.66
   0  10   1   23.85    1.71
   1 -10   1   14.97    0.95
  -1 -10  -1   14.93    1.01
  -1  10  -1   16.05    1.06
  -1  10  -1   15.65    1.14
  -2 -10  -1   73.20    3.94
   2 -10   1   64.43    3.80
  -2  10  -1   73.99    4.11
  -2  10  -1   75.91    3.98
  -3 -10  -1    4.54    0.57
  -3  10  -1    2.68    0.51
  -3  10  -1    4.30    0.81
  -4 -10  -1    5.78    0.89
  -4 -10  -1    8.46    0.85
  -4  10  -1    6.47    1.14
  -4  10  -1    7.74    0.89
  -5 -10  -1    1.38    0.69
  -5  10  -1    1.29    0.67
  -5  10  -1    1.77    0.96
  -5 -11   1    0.19    0.56
  -5  11   1    0.68    0.94
  -4 -11   1   22.15    1.57
  -4  11   1   22.24    1.54
  -4  11   1   21.45    1.85
  -3 -11   1   12.41    1.03
  -3  11   1   14.80    1.04
  -3  11   1   14.49    1.35
   2 -11  -1    0.43    0.22
  -2 -11   1    0.40    0.27
  -2  11   1    0.93    0.48
  -2  11   1    0.39    0.29
  -1 -11   1  242.41   12.33
   1 -11  -1  243.86   12.28
  -1  11   1  205.78   12.43
  -1  11   1  240.48   12.22
   0 -11  -1   57.87    3.12
   0  11   1   46.75    3.25
   0  11  -1   60.74    3.08
   0  11  -1   58.60    3.25
   1 -11   1  149.93    7.98
  -1 -11  -1  153.84    8.05
  -1  11  -1  150.19    8.15
  -1  11  -1  149.18    8.03
   2 -11   1    9.13    0.62
  -2 -11  -1    9.40    0.77
  -2  11  -1    7.22    0.90
  -2  11  -1    9.06    0.81
  -3 -11  -1    0.50    0.32
  -3  11  -1    0.60    0.53
  -3  11  -1    0.82    0.40
  -4 -11  -1   33.52    2.12
  -4 -11  -1   32.02    2.24
  -4  11  -1   31.79    2.47
  -4  11  -1   34.58    2.18
  -5 -11  -1    0.68    0.61
  -5  11  -1    0.08    0.94
  -5  11  -1    1.11    0.64
  -5 -12   1   -0.42    0.52
  -5  12   1    0.87    0.84
  -4 -12   1    2.78    0.60
  -4  12   1    1.89    0.80
  -3 -12   1   59.55    3.55
  -3  12   1   62.85    3.80
  -3  12   1   64.18    3.53
  -2 -12   1   52.94    3.01
   2 -12  -1   51.51    2.93
  -2  12   1   54.52    3.20
  -2  12   1   51.48    2.97
   1 -12  -1   92.44    4.95
  -1 -12   1   91.74    5.00
  -1  12   1   83.64    5.13
  -1  12   1   97.13    4.88
   0 -12   1   29.88    2.07
   0 -12  -1   36.12    2.10
   0  12   1   32.88    2.26
   0  12  -1   38.79    2.04
   0  12  -1   42.60    2.26
   1 -12   1   27.38    1.62
  -1 -12  -1   25.53    1.66
  -1  12  -1   26.97    1.65
  -1  12  -1   29.52    1.84
  -2 -12  -1  140.10    7.31
   2 -12   1  132.22    7.18
  -2  12  -1  134.82    7.33
  -3 -12  -1   14.41    1.15
  -3  12  -1   14.76    1.34
  -3  12  -1   17.08    1.21
  -4 -12  -1   14.77    1.43
  -4 -12  -1   14.78    1.22
  -4  12  -1   13.85    1.27
  -4  12  -1   16.33    1.57
  -4 -13   1    5.38    0.76
  -4  13   1    5.16    1.03
  -3 -13   1    1.49    0.45
  -3  13   1    1.59    0.66
  -3  13   1    1.84    0.47
  -2 -13   1    4.40    0.58
   2 -13  -1    3.90    0.49
  -2  13   1    5.80    0.86
  -2  13   1    5.86    0.60
  -1 -13   1  105.38    5.83
   1 -13  -1  105.69    5.78
  -1  13   1  117.02    5.69
  -1  13   1   98.47    5.96
   0 -13   1   20.52    1.41
   0 -13  -1   22.00    1.41
   0  13   1   22.41    1.62
   0  13  -1   21.04    1.32
   0  13  -1   26.83    1.59
  -1 -13  -1   14.56    1.06
   1 -13   1   15.43    1.02
  -1  13  -1   15.78    1.25
  -1  13  -1   14.49    1.02
  -2 -13  -1   13.42    0.98
   2 -13   1   11.68    0.83
  -2  13  -1   11.99    1.01
  -3 -13  -1    2.96    0.58
  -3  13  -1    2.68    0.57
  -3  13  -1    4.84    0.88
  -4 -13  -1   10.32    1.15
  -4 -13  -1   11.15    1.10
  -4  13  -1   11.28    1.51
  -4  13  -1    9.82    1.09
  -4 -14   1    0.21    0.47
  -4  14   1   -0.34    0.64
  -3 -14   1   20.05    1.39
  -3  14   1   16.32    1.56
  -3  14   1   16.26    1.26
   2 -14  -1   73.70    4.20
  -2 -14   1   77.44    4.30
  -2  14   1   78.88    4.46
  -2  14   1   75.67    4.18
  -1 -14   1   46.34    2.76
   1 -14  -1   45.30    2.70
  -1  14   1   45.77    2.94
  -1  14   1   50.24    2.60
   0 -14   1   12.77    0.94
   0 -14  -1   12.16    0.92
   0  14   1   13.67    1.16
   0  14  -1   10.79    0.81
   1 -14   1   30.88    1.84
  -1 -14  -1   29.57    1.89
  -1  14  -1   33.86    2.09
  -1  14  -1   29.00    1.82
   2 -14   1   29.95    1.86
  -2 -14  -1   31.86    1.95
  -2  14  -1   31.86    1.96
  -3 -14  -1   25.55    1.69
  -3  14  -1   26.03    1.93
  -3  14  -1   23.49    1.71
  -4 -14  -1    0.92    0.54
  -4 -14  -1    1.64    0.66
  -4  14  -1    0.81    0.75
  -4  14  -1    1.41    0.60
  -4 -15   1    7.55    0.94
  -4  15   1    5.05    1.06
  -3 -15   1    0.84    0.49
  -3  15   1    0.48    0.57
   2 -15  -1   17.36    1.21
  -2 -15   1   17.02    1.33
  -2  15   1   18.04    1.54
  -2  15   1   18.28    1.18
  -1 -15   1   12.17    1.02
   1 -15  -1   12.66    0.98
  -1  15   1   12.12    1.20
  -1  15   1   14.04    0.85
   0 -15   1    1.86    0.44
   0 -15  -1    1.69    0.43
   0  15  -1    2.35    0.34
   0  15   1    3.44    0.69
   0  15  -1    3.89    0.66
  -1 -15  -1   44.30    2.74
   1 -15   1   46.98    2.71
  -1  15  -1   44.78    2.65
  -1  15  -1   52.52    2.95
  -2 -15  -1    6.64    0.75
  -2  15  -1    6.98    0.75
  -2  15  -1    5.02    0.88
  -3 -15  -1   25.45    1.71
  -3  15  -1   25.33    1.92
  -3  15  -1   22.50    1.69
  -4 -15  -1    0.83    0.52
  -4 -15  -1    1.03    0.57
  -4  15  -1    1.42    0.82
  -4 -16   1    0.14    0.49
  -4  16   1    0.96    0.77
  -3 -16   1    0.64    0.43
  -3  16   1    0.29    0.57
  -2 -16   1   25.65    1.77
   2 -16  -1   24.45    1.63
  -2  16   1   26.82    1.58
  -2  16   1   26.72    1.98
   1 -16  -1   16.17    1.19
  -1 -16   1   17.37    1.29
  -1  16   1   18.13    1.46
  -1  16   1   17.05    1.06
   0 -16   1   47.80    2.87
   0 -16  -1   47.31    2.87
   0  16  -1   43.33    2.71
   0  16   1   59.77    3.10
   1 -16   1    4.65    0.61
  -1 -16  -1    3.68    0.59
  -1  16  -1    4.22    0.54
  -1  16  -1    5.11    0.85
  -2 -16  -1    0.41    0.37
  -2  16  -1    0.68    0.61
  -2  16  -1    0.62    0.41
  -3 -16  -1    9.49    1.01
  -3  16  -1    8.42    1.12
  -3  16  -1    9.24    0.96
  -4 -16  -1    1.65    0.60
  -4 -16  -1    0.26    0.52
  -4  16  -1    1.07    0.85
  -4 -17   1    6.85    0.96
  -4  17   1   10.26    1.44
  -3 -17   1    0.46    0.43
  -3  17   1    0.15    0.62
   2 -17  -1    0.98    0.36
  -2 -17   1    0.69    0.41
  -2  17   1    1.31    0.72
   1 -17  -1   37.46    2.22
  -1 -17   1   35.23    2.25
  -1  17   1   33.62    2.01
  -1  17   1   37.74    2.48
   0 -17  -1   28.72    1.82
   0 -17   1   28.34    1.82
   0  17  -1   25.22    1.61
   1 -17   1   94.69    5.28
  -1 -17  -1   92.78    5.31
  -1  17  -1   99.51    5.47
  -1  17  -1   95.00    5.19
  -2 -17  -1   10.67    1.01
  -2  17  -1   12.47    1.20
  -2  17  -1   11.53    0.98
  -3 -17  -1    3.04    0.66
  -3  17  -1    1.68    0.80
  -3  17  -1    1.99    0.57
  -4 -17  -1    3.48    0.74
  -4 -17  -1    3.89    0.80
  -4  17  -1    5.23    1.12
  -4 -18   1    6.21    0.96
  -4  18   1    5.80    1.21
  -3 -18   1    4.74    0.81
  -3  18   1    4.52    0.97
   2 -18  -1    0.64    0.57
  -2 -18   1    0.68    0.47
  -2  18   1   -0.18    0.60
   1 -18  -1    4.60    0.68
  -1 -18   1    4.57    0.71
  -1  18   1    5.41    0.96
  -1  18   1    4.25    0.46
   0 -18  -1   11.42    1.06
   0 -18   1   11.48    1.07
   1 -18   1    5.00    0.72
  -1 -18  -1    5.48    0.74
  -1  18  -1    5.76    0.66
  -1  18  -1    9.57    1.16
  -2 -18  -1    6.95    0.88
  -2  18  -1    8.95    0.84
  -2  18  -1    8.56    1.14
  -3 -18  -1    0.70    0.52
  -3  18  -1   -0.21    0.61
  -4 -18  -1   -0.60    0.53
  -4 -18  -1    0.41    0.65
  -4  18  -1    0.57    0.81
  -3 -19   1    6.48    0.92
  -3  19   1    6.73    1.18
  -2 -19   1    2.19    0.61
  -2  19   1    5.03    1.02
   1 -19  -1   14.20    1.18
  -1 -19   1   12.40    1.19
  -1  19   1   15.80    1.43
  -1  19   1   13.36    0.91
   0 -19   1   87.11    4.83
   0 -19  -1   81.89    4.79
  -1 -19  -1   38.59    2.58
   1 -19   1   38.41    2.54
  -1  19  -1   48.90    2.82
  -1  19  -1   41.79    2.44
  -2 -19  -1   14.43    1.27
  -2  19  -1   16.99    1.17
  -2  19  -1   15.42    1.51
  -3 -19  -1    2.44    0.61
  -3  19  -1    0.62    0.44
  -3 -20   1    3.44    0.74
  -3  20   1    3.49    1.02
  -2 -20   1    9.32    1.07
  -2  20   1    7.49    1.19
   1 -20  -1    1.81    0.54
  -1 -20   1    1.91    0.59
  -1  20   1    2.03    0.89
   0 -20   1    1.83    0.59
   0 -20  -1    2.35    0.56
   1 -20   1   28.66    1.95
  -1 -20  -1   27.56    1.98
  -1  20  -1   26.98    1.78
  -1  20  -1   34.66    2.22
  -2 -20  -1    2.39    0.63
  -2  20  -1    1.66    0.80
  -2  20  -1    2.36    0.63
  -3 -20  -1    5.86    0.94
  -3 -21   1    5.70    0.96
  -3  21   1    4.13    1.01
  -2 -21   1    4.66    0.87
  -2  21   1    6.14    1.16
   1 -21  -1    7.56    0.96
  -1 -21   1    6.01    0.94
  -1  21   1    8.23    1.21
   0 -21  -1   43.26    2.69
   0 -21   1   40.57    2.65
  -1 -21  -1    2.73    0.65
   1 -21   1    1.46    0.59
  -1  21  -1    2.72    0.50
  -1  21  -1    5.07    0.98
  -2 -21  -1    2.09    0.67
  -2  21  -1    2.20    0.83
  -3 -21  -1    5.06    0.87
  -3  21  -1    0.76    0.69
  -3 -22   1    2.06    0.69
  -3  22   1    1.92    0.98
  -2 -22   1    5.24    0.91
  -2  22   1    8.96    1.30
  -1 -22   1    0.53    0.61
   1 -22  -1    0.34    0.50
  -1  22   1    0.39    0.71
   0 -22  -1    0.88    0.52
   0 -22   1    0.26    0.51
   1 -22   1    6.27    0.89
  -1 -22  -1    7.60    1.02
  -1  22  -1    6.31    0.71
  -1  22  -1    7.96    1.17
  -2 -22  -1    2.64    0.74
  -2  22  -1    3.55    0.92
  -3 -22  -1    1.01    0.69
  -3  22  -1    1.53    0.87
  -2 -23   1    1.07    0.62
  -2  23   1    1.43    0.86
  -1 -23   1    0.36    0.59
   1 -23  -1    0.25    0.55
  -1  23   1   -0.11    0.38
   0 -23  -1    0.14    0.51
   0 -23   1    0.33    0.58
   1 -23   1    0.58    0.53
  -1 -23  -1   -0.26    0.54
  -1  23  -1    0.08    0.75
  -2 -23  -1    1.66    0.66
  -2  23  -1    1.45    0.89
  -2 -24   1    0.57    0.61
  -2  24   1    0.38    0.82
  -1 -24   1    3.82    0.82
   1 -24  -1    4.14    0.81
   0 -24   1   -0.16    0.59
   0 -24  -1   -0.38    0.50
   1 -24   1    0.32    0.55
  -1 -24  -1    0.40    0.57
  -1  24  -1    0.69    0.79
  -2 -24  -1    0.47    0.65
  -2  24  -1    1.88    0.89
   1 -25  -1    2.31    0.74
  -1 -25   1    1.46    0.68
  -1  25   1    0.63    0.63
   0 -25   1    8.98    1.21
   0 -25  -1   12.17    1.39
  -1 -25  -1    4.65    0.95
  -1  25  -1    7.20    1.16
   0 -26  -1    0.51    0.77
   0 -26   1    1.31    0.71
  -5   0   2   16.92    1.49
  -4   0   2   16.24    1.23
  -3   0   2   78.69    4.25
  -3   0   2   78.44    4.31
   2   0  -2   29.22    1.66
   1   0  -2   29.92    1.68
   0   0  -2  411.34   20.64
   0   0  -2  379.95   20.56
  -1   0  -2  205.53   10.59
  -1   0  -2  200.62   10.64
  -2   0  -2   78.10    4.22
  -2   0  -2   77.60    4.09
  -3   0  -2    4.87    0.36
  -3   0  -2    4.30    0.58
  -4   0  -2   12.20    1.08
  -5   0  -2   11.31    1.32
  -5  -1   2    1.18    0.57
  -5   1   2    1.39    0.61
  -4  -1   2  119.34    6.56
  -4   1   2  119.48    6.53
  -3  -1   2   28.64    1.73
  -3  -1   2   30.30    1.81
  -3   1   2   30.76    1.80
   2  -1  -2  190.86   10.12
  -2   1   2  192.36   10.11
   2   1  -2  194.40   10.12
   1  -1  -2  336.71   17.56
   0  -1  -2  116.95    6.03
   0  -1  -2  112.38    6.06
   0   1  -2  117.43    6.06
  -1  -1  -2 1000.00   50.66
  -1  -1  -2  996.51   50.46
  -1   1  -2  957.32   50.39
  -1   1  -2  922.13   50.38
  -2  -1  -2   37.04    2.11
  -2  -1  -2   39.40    2.24
  -2   1  -2   43.51    2.25
  -2   1  -2   39.10    2.09
  -3  -1  -2   68.27    3.69
  -3  -1  -2   72.08    3.91
  -3   1  -2   68.41    3.88
  -4  -1  -2   40.53    2.47
  -4   1  -2   38.08    2.44
  -5  -1  -2   -0.07    0.60
  -5   1  -2    0.50    0.64
  -5  -2   2    4.77    0.85
  -5   2   2    4.55    0.81
  -4  -2   2   11.76    1.06
  -4   2   2   14.00    1.11
  -3  -2   2   42.20    2.37
   3  -2  -2   40.01    2.25
  -3  -2   2   40.45    2.31
  -3   2   2   39.89    2.33
   2  -2  -2    4.90    0.45
  -2   2   2    4.99    0.42
   1  -2  -2  139.79    7.56
  -1   2   2  143.49    7.51
  -1   2   2  148.49    7.62
   0  -2  -2  299.12   14.97
   0  -2  -2  281.30   14.94
   0   2  -2  281.69   14.97
  -1  -2  -2  235.02   12.27
  -1  -2  -2  232.54   12.30
  -1   2  -2  232.76   12.32
  -1   2  -2  241.02   12.24
  -2  -2  -2   43.74    2.39
  -2  -2  -2   45.10    2.49
  -2   2  -2   44.23    2.49
  -3  -2  -2    0.77    0.21
  -3  -2  -2    0.10    0.32
  -3   2  -2    0.79    0.34
  -4  -2  -2    3.47    0.69
  -4   2  -2    5.15    0.75
  -5  -2  -2    7.11    1.05
  -5   2  -2    3.97    0.84
  -5  -3   2   12.15    1.32
  -5   3   2   11.98    1.23
  -4  -3   2    2.35    0.42
  -4  -3   2    2.60    0.58
  -4   3   2    1.89    0.51
  -3  -3   2   42.40    2.38
   3  -3  -2   42.89    2.32
  -3   3   2   39.39    2.37
   2  -3  -2    0.17    0.18
  -2  -3   2    0.05    0.19
  -2   3   2    0.05    0.16
   1  -3  -2   10.65    0.68
  -1   3   2   11.11    0.75
  -1   3   2   11.09    0.61
   1   3  -2   10.07    0.68
   0  -3  -2  247.14   12.82
   0  -3  -2  244.66   12.81
  -1  -3  -2   27.14    1.61
  -1  -3  -2   29.61    1.59
  -1   3  -2   30.57    1.65
  -2  -3  -2   86.45    4.56
  -2  -3  -2   88.08    4.65
  -2   3  -2   83.02    4.64
  -3  -3  -2   15.66    1.14
  -3  -3  -2   15.70    0.99
  -3   3  -2   16.35    1.13
  -4  -3  -2    0.10    0.41
  -4   3  -2   -0.20    0.37
  -5  -3  -2    8.51    1.11
  -5   3  -2    7.62    1.10
  -5  -4   2    2.09    0.66
  -5   4   2    2.72    0.69
  -4  -4   2   13.53    1.01
  -4  -4   2   12.52    1.11
  -4   4   2   14.50    1.12
   3  -4  -2    1.52    0.27
  -3  -4   2    1.25    0.32
  -3   4   2    1.53    0.35
   2  -4  -2   74.71    4.01
  -2  -4   2   73.96    4.03
  -2   4   2   75.99    3.98
  -2   4   2   72.09    4.14
   1  -4  -2    9.85    0.63
  -1  -4   2    9.45    0.66
  -1   4   2    9.76    0.71
  -1   4   2    9.47    0.56
   0   4  -2    4.36    0.38
   0   4  -2    6.97    0.46
   0   4   2    5.35    0.49
   1  -4   2   29.84    1.48
  -1  -4  -2   26.38    1.53
  -1   4  -2   25.72    1.57
  -2  -4  -2    0.36    0.25
  -2  -4  -2    0.37    0.16
  -2   4  -2    0.63    0.25
  -3  -4  -2    7.60    0.80
  -3  -4  -2    8.77    0.65
  -3   4  -2    8.99    0.78
  -4  -4  -2   -0.47    0.38
  -4   4  -2    0.57    0.46
  -5  -4  -2    0.04    0.62
  -5   4  -2   -0.09    0.59
  -5  -5   2    3.68    0.82
  -5   5   2    3.63    0.73
  -4  -5   2   32.36    1.99
  -4  -5   2   33.83    2.12
  -4   5   2   32.09    2.04
  -3  -5   2   11.54    0.88
   3  -5  -2   11.43    0.81
  -3   5   2   13.03    0.88
  -2  -5   2  224.60   11.98
   2  -5  -2  229.68   11.95
  -2   5   2  233.60   11.91
  -2   5   2  221.31   12.10
   1  -5  -2   57.28    3.37
  -1  -5   2   64.13    3.41
  -1   5   2   62.33    3.47
  -1   5   2   67.08    3.32
   0  -5   2  101.23    4.87
   0   5  -2   84.94    4.85
   0   5   2   88.71    4.96
  -1  -5  -2  206.22   11.41
   1  -5   2  235.63   11.37
  -1   5  -2  211.51   11.46
  -2  -5  -2   15.87    0.98
  -2  -5  -2   15.71    1.04
  -2   5  -2   16.08    1.05
  -3  -5  -2   89.49    4.80
  -3  -5  -2   84.31    4.66
  -3   5  -2   86.25    4.78
  -4  -5  -2    8.04    0.94
  -4   5  -2    8.90    0.97
  -5  -5  -2    9.18    1.20
  -5   5  -2   11.06    1.24
  -5  -6   2    6.19    0.96
  -5   6   2    7.10    0.93
  -5   6   2    6.11    1.25
  -4  -6   2    1.43    0.47
  -4  -6   2    0.51    0.35
  -4   6   2    1.62    0.69
  -4   6   2    1.74    0.47
   3  -6  -2    3.19    0.42
  -3  -6   2    2.84    0.46
  -3   6   2    2.91    0.63
  -3   6   2    3.07    0.43
   2  -6  -2   34.18    2.11
  -2  -6   2   38.93    2.17
  -2   6   2   40.09    2.09
  -2   6   2   37.28    2.29
  -1  -6   2   78.64    4.13
   1  -6  -2   73.94    4.09
  -1   6   2   77.86    4.21
  -1   6   2   75.38    4.05
   0  -6   2  108.06    5.96
   0   6   2  116.10    6.11
   0   6  -2  113.74    5.99
  -1  -6  -2   62.45    3.29
   1  -6   2   61.03    3.23
  -1   6  -2   59.47    3.34
  -1   6  -2   60.15    3.36
  -2  -6  -2    1.11    0.25
  -2  -6  -2    1.37    0.30
  -2   6  -2    1.17    0.30
  -3  -6  -2    7.92    0.81
  -3  -6  -2    7.69    0.64
  -3   6  -2    8.60    0.76
  -4  -6  -2    7.02    0.94
  -4   6  -2    8.48    0.95
  -5  -6  -2    4.81    0.89
  -5   6  -2    5.09    0.92
  -5  -7   2    6.42    0.97
  -5   7   2    3.70    1.15
  -5   7   2    4.82    0.79
  -4  -7   2   20.07    1.48
  -4  -7   2   18.64    1.38
  -4   7   2   19.75    1.74
  -4   7   2   20.96    1.40
  -3  -7   2   78.59    4.29
  -3   7   2   77.21    4.24
  -3   7   2   76.98    4.51
   2  -7  -2   22.64    1.37
  -2  -7   2   22.24    1.41
  -2   7   2   23.65    1.55
  -2   7   2   22.77    1.32
  -1  -7   2    1.51    0.28
   1  -7  -2    1.20    0.23
  -1   7   2    2.03    0.23
  -1   7   2    1.98    0.38
   0   7  -2   84.20    4.41
   0   7   2   78.52    4.51
  -1  -7  -2  215.97   11.31
   1  -7   2  235.86   11.26
  -1   7  -2  208.60   11.38
  -1   7  -2  199.49   11.36
  -2  -7  -2  164.15    8.74
  -2  -7  -2  176.83    8.80
  -2   7  -2  154.79    8.77
  -3  -7  -2   16.65    1.24
  -3  -7  -2   17.20    1.14
  -3   7  -2   18.32    1.25
  -4  -7  -2    2.13    0.61
  -4   7  -2    1.00    0.53
  -5  -7  -2    3.33    0.81
  -5   7  -2    2.81    0.80
  -5  -8   2    4.69    0.92
  -5   8   2    2.16    0.97
  -4  -8   2   32.33    2.11
  -4  -8   2   30.32    1.99
  -4   8   2   31.06    2.34
  -4   8   2   33.32    2.00
  -3  -8   2    1.92    0.42
  -3   8   2    1.96    0.59
  -3   8   2    1.38    0.35
  -2  -8   2    0.46    0.26
   2  -8  -2    0.76    0.23
  -2   8   2    0.78    0.38
  -2   8   2    0.64    0.22
  -1  -8   2  180.63    9.50
   1  -8  -2  177.29    9.45
  -1   8   2  186.09    9.38
  -1   8   2  173.08    9.59
   0  -8  -2  219.16   11.16
   0   8  -2  232.75   11.18
   0   8  -2  185.85   11.18
   1  -8   2  213.48   10.66
  -1  -8  -2  209.15   10.71
  -1   8  -2  186.03   10.77
  -1   8  -2  203.91   10.79
   2  -8   2    8.08    0.47
  -2  -8  -2    9.15    0.64
  -2   8  -2    7.80    0.68
  -2   8  -2    5.24    0.75
  -3  -8  -2    0.61    0.38
  -3  -8  -2    0.93    0.32
  -3   8  -2    1.74    0.45
  -4  -8  -2   15.51    1.29
  -4   8  -2   14.32    1.26
  -5  -8  -2    5.12    1.00
  -5   8  -2    5.66    0.94
  -5  -9   2   16.75    1.52
  -5   9   2   15.98    1.93
  -4  -9   2    5.58    0.73
  -4   9   2    5.08    1.00
  -4   9   2    5.74    0.70
  -3  -9   2  138.39    7.42
  -3   9   2  142.03    7.35
  -3   9   2  130.99    7.60
   2  -9  -2    0.83    0.25
  -2  -9   2    0.97    0.31
  -2   9   2    1.17    0.26
  -2   9   2    0.76    0.40
  -1  -9   2   28.07    1.70
   1  -9  -2   29.46    1.65
  -1   9   2   29.86    1.56
  -1   9   2   25.74    1.79
   0  -9  -2  481.50   24.12
   0   9  -2  418.80   24.15
   0   9  -2  486.30   24.12
  -1  -9  -2   55.57    3.04
   1  -9   2   55.02    2.99
  -1   9  -2   56.28    3.13
  -1   9  -2   52.58    3.11
  -2  -9  -2  242.95   11.98
   2  -9   2  210.13   11.82
  -2   9  -2  238.94   12.02
  -2   9  -2  216.59   12.10
  -3  -9  -2    9.97    0.91
  -3  -9  -2    9.91    0.83
  -3   9  -2    9.58    0.87
  -3   9  -2   12.31    1.29
  -4  -9  -2    1.29    0.58
  -4  -9  -2    1.04    0.49
  -4   9  -2    1.43    0.81
  -4   9  -2    0.92    0.48
  -5  -9  -2   19.77    1.76
  -5   9  -2   21.89    2.38
  -5   9  -2   22.69    1.80
  -5 -10   2    0.40    0.58
  -5  10   2    1.29    0.94
  -4 -10   2   23.89    1.59
  -4  10   2   23.56    1.57
  -4  10   2   20.17    1.82
  -3 -10   2   21.90    1.45
  -3  10   2   18.84    1.59
  -3  10   2   21.64    1.36
   2 -10  -2   12.36    0.87
  -2 -10   2   12.39    0.93
  -2  10   2   12.22    1.07
  -2  10   2   13.44    0.88
  -1 -10   2   42.03    2.48
   1 -10  -2   43.15    2.44
  -1  10   2   43.73    2.64
  -1  10   2   44.82    2.34
   0 -10  -2   54.78    2.92
   0  10   2   44.94    3.05
   0  10  -2   57.88    2.92
   0  10  -2   51.76    2.97
  -1 -10  -2   81.16    4.66
   1 -10   2   90.12    4.63
  -1  10  -2   84.92    4.73
  -1  10  -2   88.00    4.76
   2 -10   2    5.66    0.45
  -2 -10  -2    7.58    0.62
  -2  10  -2    7.19    0.83
  -2  10  -2    7.00    0.72
  -3 -10  -2    0.28    0.28
  -3 -10  -2    0.55    0.38
  -3  10  -2    0.36    0.39
  -3  10  -2    0.46    0.56
  -4 -10  -2    3.94    0.63
  -4 -10  -2    2.92    0.67
  -4  10  -2    2.77    0.87
  -4  10  -2    3.92    0.72
  -5 -10  -2    1.47    0.68
  -5  10  -2    1.82    1.13
  -5  10  -2    1.12    0.71
  -5 -11   2    4.57    0.91
  -5  11   2    4.69    1.13
  -4 -11   2    2.15    0.54
  -4  11   2    1.95    0.78
  -3 -11   2   24.92    1.62
  -3  11   2   24.39    1.53
  -3  11   2   22.82    1.83
  -2 -11   2    3.56    0.52
   2 -11  -2    2.68    0.41
  -2  11   2    3.60    0.43
  -2  11   2    1.92    0.53
   1 -11  -2   22.68    1.38
  -1 -11   2   21.18    1.41
  -1  11   2   20.76    1.58
  -1  11   2   23.66    1.25
   0 -11  -2  158.21    9.02
   0  11  -2  187.82    9.04
   0  11  -2  178.06    9.11
   0  11   2  156.75    9.20
  -1 -11  -2   44.67    2.78
   1 -11   2   52.01    2.76
  -1  11  -2   51.99    2.90
  -1  11  -2   49.43    2.84
   2 -11   2   22.48    1.36
  -2 -11  -2   24.88    1.52
  -2  11  -2   27.16    1.70
  -2  11  -2   22.79    1.58
  -3 -11  -2   10.91    0.95
  -3 -11  -2   10.14    0.87
  -3  11  -2    8.25    0.89
  -3  11  -2    9.25    1.13
  -4 -11  -2    7.34    1.02
  -4 -11  -2    8.60    0.92
  -4  11  -2    7.16    0.92
  -4  11  -2    9.03    1.34
  -5 -12   2    0.39    0.61
  -5  12   2    0.40    0.89
  -4 -12   2    2.93    0.60
  -4  12   2    3.89    0.89
  -3 -12   2   41.32    2.44
  -3  12   2   39.99    2.33
  -3  12   2   36.73    2.58
  -2 -12   2   30.24    1.89
   2 -12  -2   28.80    1.79
  -2  12   2   29.98    2.02
  -2  12   2   30.99    1.78
  -1 -12   2   40.65    2.34
   1 -12  -2   37.53    2.28
  -1  12   2   43.15    2.16
  -1  12   2   36.11    2.47
   0 -12  -2    4.58    0.54
   0  12  -2    6.85    0.67
   0  12  -2    4.91    0.53
   0  12   2    4.23    0.72
   1 -12   2    7.18    0.63
  -1 -12  -2    7.29    0.72
  -1  12  -2    7.84    0.76
  -1  12  -2    8.78    0.82
   2 -12   2   28.78    1.79
  -2 -12  -2   31.34    1.91
  -2  12  -2   30.94    1.97
  -2  12  -2   33.30    2.06
  -3 -12  -2    2.88    0.53
  -3 -12  -2    2.81    0.58
  -3  12  -2    3.58    0.77
  -3  12  -2    2.44    0.54
  -4 -12  -2    2.95    0.72
  -4 -12  -2    2.20    0.57
  -4  12  -2    2.53    0.94
  -4  12  -2    2.43    0.65
  -4 -13   2    4.41    0.73
  -4  13   2    3.50    0.91
  -3 -13   2   23.28    1.59
  -3  13   2   22.96    1.84
  -2 -13   2    0.49    0.36
   2 -13  -2    0.44    0.27
  -2  13   2    0.56    0.49
  -2  13   2    0.40    0.28
   1 -13  -2   69.28    3.92
  -1 -13   2   74.95    4.00
  -1  13   2   73.58    3.78
  -1  13   2   65.69    4.13
   0 -13   2   -0.06    0.08
   0 -13  -2    1.14    0.31
   0  13  -2    0.12    0.32
   0  13   2   -0.23    0.36
   0  13  -2    0.38    0.23
  -1 -13  -2   30.60    1.91
   1 -13   2   31.15    1.85
  -1  13  -2   32.73    2.03
  -1  13  -2   30.68    1.90
  -2 -13  -2   51.85    2.96
  -2  13  -2   46.61    2.99
  -2  13  -2   54.94    3.12
  -3 -13  -2    1.63    0.48
  -3 -13  -2    2.15    0.53
  -3  13  -2    1.91    0.54
  -3  13  -2    1.56    0.61
  -4 -13  -2   29.75    2.06
  -4 -13  -2   29.58    1.96
  -4  13  -2   26.51    2.20
  -4  13  -2   28.88    2.02
  -4 -14   2    1.79    0.60
  -4  14   2    0.78    0.76
  -3 -14   2   23.29    1.65
  -3  14   2   23.72    1.88
   2 -14  -2   45.76    2.80
  -2 -14   2   48.99    2.90
  -2  14   2   48.93    3.08
  -2  14   2   51.70    2.73
   1 -14  -2  109.13    5.65
  -1 -14   2  101.73    5.69
  -1  14   2  101.14    5.87
  -1  14   2  103.03    5.48
   0 -14  -2   21.10    1.39
   0  14   2   20.13    1.59
   0  14  -2   19.64    1.33
   0  14  -2   24.43    1.49
  -1 -14  -2    8.18    0.81
   1 -14   2    7.33    0.68
  -1  14  -2    8.24    0.78
  -1  14  -2    8.22    0.95
  -2 -14  -2    6.24    0.71
  -2  14  -2    6.43    0.77
  -2  14  -2    7.32    0.92
  -3 -14  -2   12.49    1.04
  -3  14  -2    9.27    1.03
  -4 -14  -2    8.37    1.01
  -4 -14  -2    9.90    1.13
  -4  14  -2   10.12    1.44
  -4  14  -2    8.11    1.03
  -4 -15   2    0.25    0.48
  -4  15   2    0.68    0.79
  -3 -15   2   32.83    2.14
  -3  15   2   32.59    2.35
   2 -15  -2    6.92    0.73
  -2 -15   2    5.47    0.73
  -2  15   2    7.37    0.68
  -2  15   2    7.99    1.08
   1 -15  -2   39.38    2.37
  -1 -15   2   41.30    2.43
  -1  15   2   39.61    2.63
  -1  15   2   40.12    2.19
   0 -15  -2   14.22    1.12
   0  15   2   15.85    1.37
   0  15  -2   13.61    1.03
   0  15  -2   19.93    1.25
   1 -15   2    2.82    0.47
  -1 -15  -2    2.49    0.49
  -1  15  -2    3.66    0.71
  -1  15  -2    3.53    0.52
  -2 -15  -2   73.00    4.19
  -2  15  -2   73.55    4.31
  -2  15  -2   75.80    4.20
  -3 -15  -2    8.83    0.93
  -3  15  -2    6.57    0.87
  -4 -15  -2    9.80    1.16
  -4 -15  -2    9.09    1.09
  -4  15  -2    9.97    1.35
  -4  15  -2    9.50    1.15
  -4 -16   2    2.32    0.69
  -4  16   2    2.10    0.83
  -3 -16   2    0.64    0.48
  -3  16   2    0.77    0.68
  -2 -16   2   17.35    1.33
   2 -16  -2   16.22    1.20
  -2  16   2   17.67    1.51
  -1 -16   2   54.35    3.06
   1 -16  -2   51.29    2.98
  -1  16   2   47.17    2.77
  -1  16   2   55.60    3.25
   0 -16  -2   74.30    4.40
   0  16  -2   71.98    4.29
   0  16  -2   89.55    4.46
  -1 -16  -2    5.68    0.72
   1 -16   2    5.86    0.68
  -1  16  -2    7.43    0.93
  -1  16  -2    5.09    0.65
  -2 -16  -2    1.20    0.45
  -2  16  -2    1.48    0.58
  -2  16  -2    1.61    0.49
  -3 -16  -2    8.70    0.97
  -3  16  -2    9.64    1.23
  -3  16  -2    9.07    1.02
  -4 -16  -2    7.16    0.97
  -4 -16  -2    6.82    1.04
  -4  16  -2    5.19    0.94
  -4  16  -2    8.00    1.26
  -4 -17   2    4.94    0.87
  -4  17   2    6.09    1.18
  -3 -17   2    3.12    0.71
  -3  17   2    4.86    1.01
  -2 -17   2   29.85    2.05
   2 -17  -2   30.96    1.98
  -2  17   2   34.02    2.34
  -1 -17   2   -0.16    0.40
   1 -17  -2    0.31    0.36
  -1  17   2    0.54    0.19
  -1  17   2   -0.05    0.60
   0 -17   2    0.05    0.15
   0 -17  -2    0.89    0.43
   0  17  -2    0.60    0.32
  -1 -17  -2   66.78    4.01
   1 -17   2   66.60    3.95
  -1  17  -2   81.55    4.16
  -1  17  -2   65.72    3.89
  -2 -17  -2    5.23    0.78
  -2  17  -2    6.02    0.94
  -2  17  -2    6.84    0.79
  -3 -17  -2    9.10    1.05
  -3  17  -2    8.24    0.97
  -3  17  -2    9.09    1.20
  -4 -17  -2    1.23    0.63
  -4 -17  -2    1.28    0.60
  -4  17  -2    1.06    0.85
  -4 -18   2    2.02    0.69
  -4  18   2    2.09    0.95
  -3 -18   2    7.92    1.01
  -3  18   2    6.54    1.11
   2 -18  -2    1.38    0.45
  -2 -18   2    1.41    0.57
  -2  18   2    1.68    0.75
   1 -18  -2    3.48    0.62
  -1 -18   2    3.80    0.67
  -1  18   2    7.15    1.14
   0 -18  -2   31.27    1.97
   0  18  -2   28.59    1.80
  -1 -18  -2    5.41    0.76
   1 -18   2    5.45    0.72
  -1  18  -2    7.83    1.03
  -1  18  -2    5.68    0.68
  -2 -18  -2    0.95    0.47
  -2  18  -2    0.16    0.42
  -2  18  -2    1.11    0.69
  -3 -18  -2    2.36    0.63
  -3  18  -2    2.71    0.80
  -3  18  -2    2.17    0.63
  -3 -19   2    0.10    0.53
  -3  19   2   -0.13    0.77
   2 -19  -2    4.59    0.68
  -2 -19   2    3.34    0.69
  -2  19   2    4.83    1.04
  -1 -19   2   15.09    1.33
   1 -19  -2   16.34    1.30
  -1  19   2   16.81    1.56
   0 -19  -2    5.07    0.73
   0 -19   2    1.61    0.41
   0  19  -2    3.52    0.53
  -1 -19  -2   21.76    1.67
   1 -19   2   23.75    1.67
  -1  19  -2   23.31    1.60
  -1  19  -2   28.22    1.89
  -2 -19  -2    0.15    0.42
  -2  19  -2    0.48    0.41
  -2  19  -2   -0.39    0.59
  -3 -19  -2    0.49    0.56
  -3  19  -2    0.79    0.74
  -3 -20   2   10.12    1.19
  -3  20   2    7.23    1.22
  -2 -20   2    8.51    1.07
  -2  20   2   13.31    1.52
  -1 -20   2    3.02    0.68
   1 -20  -2    5.03    0.75
  -1  20   2    6.89    1.20
   0 -20  -2    1.27    0.58
   0 -20   2    0.30    0.24
   0  20  -2    0.72    0.37
  -1 -20  -2    0.51    0.50
   1 -20   2    0.87    0.47
  -1  20  -2    0.38    0.42
  -1  20  -2    0.23    0.68
  -2 -20  -2    0.67    0.54
  -2  20  -2    1.01    0.46
  -2  20  -2    1.06    0.71
  -3 -20  -2    1.07    0.62
  -3  20  -2   -0.28    0.70
  -3 -21   2    0.62    0.64
  -3  21   2    0.93    0.90
  -2 -21   2    4.15    0.79
  -2  21   2    3.96    0.98
  -1 -21   2    5.02    0.83
   1 -21  -2    6.27    0.89
  -1  21   2    7.87    1.21
   0 -21  -2    7.56    0.91
   0 -21   2    2.86    0.55
   1 -21   2    0.55    0.49
  -1 -21  -2    0.55    0.50
  -1  21  -2    0.68    0.41
  -1  21  -2    0.79    0.70
  -2 -21  -2    3.22    0.75
  -2  21  -2    3.23    0.60
  -2  21  -2    3.07    0.86
  -3 -21  -2    9.65    1.14
  -3  21  -2    9.43    1.32
  -3 -22   2    5.96    1.06
  -3  22   2    5.66    1.23
  -2 -22   2   20.83    1.73
  -2  22   2   20.25    1.85
   1 -22  -2   14.66    1.38
  -1 -22   2   12.44    1.40
  -1  22   2   16.86    1.61
   0 -22  -2    7.16    1.02
   1 -22   2    0.21    0.49
  -1 -22  -2    0.45    0.52
  -1  22  -2    1.36    0.79
  -1  22  -2    0.38    0.42
  -2 -22  -2    0.66    0.63
  -2  22  -2    1.76    0.78
  -2 -23   2   13.16    1.44
  -2  23   2   13.16    1.65
  -1 -23   2    2.07    0.74
   1 -23  -2    2.76    0.75
  -1  23   2    4.50    1.16
   0 -23  -2    6.46    1.03
  -1 -23  -2    2.46    0.72
   1 -23   2    7.25    0.92
  -1  23  -2    3.69    0.64
  -1  23  -2    6.01    1.02
  -2 -23  -2    2.54    0.77
  -2  23  -2    2.74    0.89
  -2 -24   2   11.85    1.47
  -2  24   2   16.18    1.82
  -1 -24   2   13.33    1.54
   1 -24  -2   13.81    1.50
  -1  24   2   19.82    1.83
   0 -24  -2    8.85    1.17
  -1 -24  -2    0.18    0.57
  -2 -24  -2    4.46    0.94
  -1 -25   2    2.50    0.83
   1 -25  -2    4.36    0.96
  -1  25   2    3.90    1.04
   0 -25  -2   -0.19    0.57
   0 -25   2   -0.32    0.20
  -1 -25  -2    1.46    0.71
   0 -26   2   -0.14    0.28
   0 -26  -2    0.66    0.67
  -5   0   3    0.58    0.52
  -4   0   3    0.14    0.34
   3   0  -3    0.01    0.20
  -3   0   3   -0.13    0.21
   2   0  -3    0.22    0.20
  -1   0   3    0.23    0.18
   1   0  -3    0.17    0.17
   0   0  -3    0.32    0.13
   0   0  -3    0.63    0.17
  -1   0  -3    0.13    0.13
  -1   0  -3   -0.39    0.14
  -2   0  -3    0.05    0.11
  -2   0  -3    0.15    0.20
  -3   0  -3   -0.18    0.30
  -4   0  -3    0.63    0.49
  -5   0  -3    0.66    0.66
  -5  -1   3    2.56    0.70
  -5   1   3    2.76    0.69
  -4  -1   3    1.23    0.46
  -4  -1   3    0.91    0.36
  -4   1   3    1.08    0.44
   3  -1  -3    6.14    0.58
  -3  -1   3    7.10    0.64
  -3   1   3    6.76    0.59
   2  -1  -3   14.11    0.95
   2   1  -3   13.95    0.93
   1   1  -3   69.97    3.90
  -1   1   3   73.84    3.89
   0  -1  -3   19.37    1.12
   0  -1  -3   19.84    1.09
   0   1  -3   19.32    1.12
  -1  -1  -3   13.25    0.83
  -1  -1  -3   13.91    0.80
  -1   1  -3   13.55    0.78
  -1   1  -3   12.79    0.84
  -2  -1  -3   26.86    1.50
  -2  -1  -3   27.02    1.62
  -2   1  -3   27.61    1.47
  -2   1  -3   27.12    1.63
  -3  -1  -3    8.01    0.83
  -3  -1  -3    9.48    0.61
  -3   1  -3    9.38    0.82
  -4  -1  -3   12.80    1.15
  -4   1  -3   13.52    1.15
  -5  -1  -3   -0.64    0.58
  -5   1  -3    0.25    0.64
  -5  -2   3    5.83    0.91
  -5   2   3    8.14    1.01
  -4  -2   3   38.37    2.30
  -4  -2   3   38.35    2.39
  -4   2   3   40.39    2.39
  -3  -2   3   14.84    1.08
   3  -2  -3   15.66    1.05
  -3   2   3   17.02    1.07
   2  -2  -3  179.98    9.46
  -2   2   3  181.04    9.37
   2   2  -3  174.16    9.43
   1   2  -3  119.54    6.61
  -1   2   3  129.23    6.62
   0  -2  -3  144.76    7.94
   0  -2  -3  156.03    7.90
   0   2  -3  152.79    7.96
  -1  -2  -3  292.88   15.23
  -1   2  -3  292.29   15.21
  -1   2  -3  291.10   15.28
  -2  -2  -3    8.93    0.72
  -2  -2  -3    9.25    0.61
  -2   2  -3    8.92    0.71
  -2   2  -3    9.92    0.54
  -3  -2  -3   89.54    4.92
  -3  -2  -3   88.82    4.73
  -3   2  -3   88.34    4.91
  -4  -2  -3   12.51    1.24
  -4   2  -3   12.99    1.19
  -5  -2  -3    7.90    1.10
  -5   2  -3    9.20    1.14
  -5  -3   3    7.66    1.02
  -5   3   3    8.74    1.02
  -4  -3   3    5.81    0.68
  -4  -3   3    6.24    0.77
  -4   3   3    7.19    0.78
   3  -3  -3   41.99    2.40
  -3  -3   3   41.75    2.43
  -3   3   3   41.52    2.38
   2  -3  -3  286.34   15.13
  -2   3   3  291.78   15.21
   2   3  -3  284.40   15.11
  -2   3   3  289.42   15.04
   1  -3  -3  608.73   37.47
   1   3  -3  731.40   37.51
  -1   3   3  746.17   37.44
  -1   3   3  787.80   37.43
   0  -3  -3  319.85   16.16
   0  -3  -3  332.36   16.19
   0   3  -3  254.12   16.21
   0   3  -3  324.45   16.13
   0   3  -3  318.19   16.19
  -1  -3  -3   66.69    3.59
  -1   3  -3   66.85    3.56
  -1   3  -3   68.16    3.65
  -2  -3  -3   99.05    5.56
  -2  -3  -3  104.11    5.49
  -2   3  -3  107.72    5.59
  -3  -3  -3   48.26    2.85
  -3  -3  -3   49.48    2.69
  -3   3  -3   49.11    2.85
  -4  -3  -3   65.54    3.85
  -4   3  -3   65.88    3.85
  -5  -3  -3    3.03    0.83
  -5   3  -3    1.83    0.69
  -5  -4   3    1.93    0.64
  -5   4   3    2.88    0.68
  -4  -4   3    6.06    0.78
  -4  -4   3    5.06    0.65
  -4   4   3    6.40    0.74
   3  -4  -3    8.21    0.67
  -3  -4   3    7.22    0.69
  -3   4   3    6.88    0.62
   2  -4  -3  103.48    5.63
  -2   4   3  105.44    5.73
  -2   4   3  105.10    5.54
   1  -4  -3    3.01    0.37
  -1   4   3    4.12    0.44
   1   4  -3    4.18    0.43
  -1   4   3    3.70    0.25
   0  -4  -3    9.85    0.61
   0  -4  -3    9.41    0.52
   0   4  -3    8.66    0.54
   0   4   3    7.97    0.67
   0   4  -3    9.66    0.62
   0   4  -3    7.72    0.66
  -1  -4  -3   94.41    5.10
  -1  -4  -3   95.08    5.10
  -1   4  -3   98.52    5.07
  -1   4  -3   96.75    5.16
  -2  -4  -3    8.25    0.57
  -2  -4  -3    7.84    0.66
  -2   4  -3    6.97    0.63
  -3  -4  -3   41.46    2.44
  -3  -4  -3   41.74    2.29
  -3   4  -3   38.63    2.43
  -4  -4  -3    0.48    0.49
  -4   4  -3    0.70    0.47
  -5  -4  -3    0.36    0.59
  -5   4  -3    1.43    0.70
  -5  -5   3   16.84    1.62
  -5   5   3   17.04    1.78
  -5   5   3   18.05    1.43
  -4  -5   3    6.68    0.76
  -4  -5   3    6.53    0.86
  -4   5   3    8.01    0.81
  -4   5   3    7.93    1.15
   3  -5  -3   13.26    0.98
  -3  -5   3   12.47    0.97
  -3   5   3   13.16    0.90
  -3   5   3   13.16    1.13
   2  -5  -3  231.98   12.38
  -2  -5   3  236.61   12.42
  -2   5   3  237.05   12.29
  -2   5   3  234.38   12.50
   1  -5  -3  579.01   30.67
  -1   5   3  610.24   30.56
  -1   5   3  576.47   30.74
   0  -5  -3  476.95   21.87
   0  -5  -3  469.21   21.86
   0   5  -3  367.93   21.80
   0   5  -3  363.67   21.88
  -1  -5  -3    5.22    0.42
  -1  -5  -3    5.53    0.42
   1  -5   3    5.39    0.40
  -1   5  -3    5.61    0.55
  -2  -5  -3   53.25    3.00
  -2  -5  -3   53.06    2.93
  -2   5  -3   54.85    3.02
  -3  -5  -3  127.06    6.68
  -3  -5  -3  124.60    6.53
  -3   5  -3  115.62    6.64
  -4  -5  -3   46.47    2.82
  -4   5  -3   42.83    2.76
  -5  -5  -3    6.87    1.06
  -5   5  -3    8.77    1.16
  -5  -6   3    2.10    0.74
  -5   6   3    2.45    1.01
  -4  -6   3   18.94    1.40
  -4  -6   3   17.46    1.31
  -4   6   3   18.80    1.31
  -4   6   3   18.70    1.64
  -3  -6   3   25.35    1.59
   3  -6  -3   23.75    1.56
  -3   6   3   23.14    1.72
  -3   6   3   25.83    1.50
   2  -6  -3    4.44    0.50
  -2  -6   3    3.84    0.49
  -2   6   3    5.26    0.67
  -2   6   3    4.52    0.38
  -1  -6   3  192.17    9.88
   1  -6  -3  185.83    9.83
  -1   6   3  185.68    9.91
  -1   6   3  183.17    9.70
   0  -6  -3   42.83    2.10
   0  -6   3   39.42    2.11
   0   6   3   35.87    2.20
   0   6  -3   33.34    2.11
   0   6  -3   35.48    2.05
   1  -6   3   36.89    1.95
  -1  -6  -3   33.99    1.99
  -1  -6  -3   34.60    1.97
  -1   6  -3   36.47    2.07
  -2  -6  -3   72.04    3.95
  -2  -6  -3   71.57    3.90
  -2   6  -3   72.24    3.97
  -3  -6  -3    4.75    0.64
  -3  -6  -3    5.69    0.55
  -3   6  -3    4.93    0.64
  -4  -6  -3   14.98    1.29
  -4   6  -3   15.72    1.28
  -5  -6  -3    0.94    0.64
  -5   6  -3    1.12    0.64
  -5  -7   3    6.10    1.01
  -5   7   3    6.94    1.34
  -4  -7   3    0.73    0.39
  -4   7   3    1.44    0.71
  -4   7   3    0.22    0.34
   3  -7  -3    1.45    0.39
  -3  -7   3    1.93    0.43
  -3   7   3    1.21    0.32
  -3   7   3    2.36    0.59
  -2  -7   3  130.10    6.99
   2  -7  -3  130.06    6.96
  -2   7   3  130.91    7.09
  -2   7   3  128.81    6.84
  -1  -7   3  143.42    7.43
   1  -7  -3  137.19    7.38
  -1   7   3  131.51    7.48
  -1   7   3  144.07    7.24
   0  -7   3  125.51    6.67
   0  -7  -3  136.33    6.67
   0   7   3  117.28    6.78
   0   7  -3  126.22    6.64
   0   7  -3  120.88    6.69
   1  -7   3    5.49    0.45
  -1  -7  -3    5.82    0.50
  -1  -7  -3    5.98    0.47
  -1   7  -3    6.18    0.65
  -1   7  -3    6.63    0.56
  -2  -7  -3   21.40    1.34
  -2  -7  -3   19.90    1.29
  -2   7  -3   22.61    1.38
  -3  -7  -3   92.33    5.12
  -3  -7  -3   92.13    5.01
  -3   7  -3   92.09    5.11
  -4  -7  -3    2.94    0.69
  -4   7  -3    3.96    0.72
  -5  -7  -3    3.52    0.84
  -5   7  -3    3.45    0.80
  -5  -8   3    1.21    0.67
  -5   8   3   -0.05    0.72
  -4  -8   3   37.00    2.33
  -4   8   3   36.45    2.61
  -4   8   3   38.99    2.28
   3  -8  -3    0.31    0.30
  -3  -8   3    0.20    0.32
  -3   8   3    0.27    0.26
  -3   8   3    0.01    0.43
  -2  -8   3   49.43    2.90
   2  -8  -3   48.22    2.85
  -2   8   3   53.56    3.02
  -2   8   3   51.94    2.76
  -1  -8   3   61.79    3.42
   1  -8  -3   57.01    3.37
  -1   8   3   65.14    3.23
  -1   8   3   61.47    3.51
   0  -8  -3    0.20    0.17
   0  -8   3    0.39    0.20
   0   8  -3    0.48    0.20
   0   8   3    0.27    0.31
   0   8  -3   -0.09    0.22
   1  -8   3  220.11   10.66
  -1  -8  -3  195.63   10.68
  -1   8  -3  201.65   10.75
  -1   8  -3  192.99   10.78
  -2  -8  -3    0.88    0.33
  -2  -8  -3    0.22    0.22
  -2   8  -3    1.20    0.36
  -2   8  -3    1.26    0.44
  -3  -8  -3   39.44    2.29
  -3  -8  -3   39.04    2.40
  -3   8  -3   38.81    2.39
  -4  -8  -3    6.52    0.92
  -4   8  -3    5.79    0.85
  -5  -8  -3    0.76    0.69
  -5   8  -3    0.75    0.63
  -5  -9   3   -0.32    0.51
  -5   9   3    0.30    0.83
  -4  -9   3    0.19    0.38
  -4   9   3    0.59    0.66
  -3  -9   3    0.53    0.40
   3  -9  -3    0.18    0.35
  -3   9   3    0.50    0.28
  -3   9   3    0.57    0.51
  -2  -9   3    0.56    0.30
   2  -9  -3    0.65    0.26
  -2   9   3    0.78    0.39
  -2   9   3    0.58    0.22
  -1  -9   3    4.27    0.53
   1  -9  -3    4.64    0.49
  -1   9   3    5.21    0.67
  -1   9   3    4.81    0.30
   0  -9  -3    7.68    0.62
   0  -9   3    8.04    0.66
   0   9  -3    8.31    0.64
   0   9   3    9.55    0.87
   0   9  -3    8.68    0.67
  -1  -9  -3   19.32    1.19
   1  -9   3   19.04    1.14
  -1   9  -3   18.85    1.24
  -1   9  -3   16.69    1.26
   2  -9   3    3.14    0.28
  -2  -9  -3    2.62    0.42
  -2  -9  -3    3.25    0.43
  -2   9  -3    2.56    0.50
  -2   9  -3    3.42    0.60
  -3  -9  -3    0.31    0.29
  -3  -9  -3    0.69    0.40
  -3   9  -3    0.69    0.45
  -3   9  -3    0.46    0.36
  -4  -9  -3    1.18    0.58
  -4   9  -3    2.01    0.62
  -5  -9  -3    0.84    0.64
  -5   9  -3    1.63    1.11
  -5   9  -3    1.62    0.74
  -5 -10   3    9.93    1.23
  -5  10   3    9.94    1.57
  -4 -10   3    3.67    0.65
  -4  10   3    3.19    0.86
  -3 -10   3   79.65    4.62
  -3  10   3   85.77    4.50
  -3  10   3   81.97    4.81
  -2 -10   3    3.18    0.53
   2 -10  -3    3.90    0.50
  -2  10   3    3.32    0.40
  -2  10   3    4.46    0.67
   1 -10  -3    8.59    0.71
  -1 -10   3   10.62    0.78
  -1  10   3    9.91    0.91
  -1  10   3    9.59    0.55
   0 -10  -3  132.62    6.97
   0 -10   3  117.97    6.96
   0  10  -3  140.74    6.98
   0  10  -3  130.47    6.97
   0  10   3  129.43    7.15
  -1 -10  -3   36.11    2.07
   1 -10   3   34.04    2.02
  -1  10  -3   36.22    2.13
  -1  10  -3   36.00    2.15
  -2 -10  -3  140.56    7.19
  -2  10  -3  131.52    7.31
  -2  10  -3  129.11    7.24
  -3 -10  -3    1.82    0.49
  -3 -10  -3    1.92    0.44
  -3  10  -3    1.56    0.48
  -4 -10  -3    5.01    0.84
  -4  10  -3    6.55    0.91
  -4  10  -3    6.38    1.19
  -5 -11   3    3.66    0.84
  -5  11   3    2.86    0.98
  -4 -11   3    0.76    0.48
  -4  11   3    0.97    0.76
  -3 -11   3    2.63    0.53
  -3  11   3    3.14    0.71
  -3  11   3    4.13    0.59
  -2 -11   3   67.75    3.65
   2 -11  -3   65.51    3.57
  -2  11   3   59.41    3.46
  -2  11   3   63.89    3.74
   1 -11  -3   77.12    4.14
  -1 -11   3   77.09    4.19
  -1  11   3   73.82    4.31
  -1  11   3   74.05    3.96
   0 -11  -3  116.39    6.41
   0 -11   3  106.21    6.40
   0  11  -3  134.94    6.44
   0  11  -3  123.15    6.43
   0  11   3  115.58    6.59
  -1 -11  -3    2.65    0.41
   1 -11   3    3.24    0.41
  -1  11  -3    2.49    0.47
  -1  11  -3    2.97    0.51
  -2 -11  -3    1.20    0.34
  -2  11  -3    0.99    0.44
  -2  11  -3    0.66    0.44
  -3 -11  -3   27.61    1.74
  -3 -11  -3   28.68    1.85
  -3  11  -3   24.83    1.78
  -4 -11  -3    4.39    0.74
  -4 -11  -3    3.39    0.73
  -4  11  -3    3.33    0.74
  -4  11  -3    3.47    0.99
  -5 -12   3    4.49    0.92
  -5  12   3    3.71    1.08
  -4 -12   3    0.84    0.50
  -4  12   3    0.50    0.66
  -3 -12   3   63.05    3.67
  -3  12   3   63.58    3.84
  -2 -12   3    0.58    0.35
   2 -12  -3    0.95    0.31
  -2  12   3    1.14    0.26
  -2  12   3    0.64    0.52
  -1 -12   3   48.78    2.79
   1 -12  -3   49.31    2.74
  -1  12   3   47.72    2.93
  -1  12   3   46.51    2.54
   0 -12  -3   97.42    5.20
   0 -12   3   85.13    5.18
   0  12  -3  102.64    5.21
   0  12   3   96.72    5.39
  -1 -12  -3    9.15    0.80
   1 -12   3    9.75    0.75
  -1  12  -3    9.87    0.89
  -1  12  -3    9.56    0.83
  -2 -12  -3   99.61    5.32
  -2  12  -3   95.64    5.41
  -2  12  -3   95.50    5.39
  -3 -12  -3    0.50    0.38
  -3 -12  -3   -0.23    0.38
  -3  12  -3    0.06    0.47
  -3  12  -3    0.11    0.51
  -4 -12  -3    5.11    0.85
  -4 -12  -3    5.45    0.75
  -4  12  -3    5.27    1.06
  -4  12  -3    4.75    0.84
  -4 -13   3    1.11    0.51
  -4  13   3    1.85    0.75
  -3 -13   3    2.49    0.55
  -3  13   3    2.84    0.74
  -2 -13   3   59.29    3.54
   2 -13  -3   61.14    3.48
  -2  13   3   61.28    3.34
  -2  13   3   64.92    3.73
   1 -13  -3   99.38    5.39
  -1 -13   3  100.98    5.44
  -1  13   3   95.89    5.58
   0 -13  -3  113.78    6.56
   0  13  -3  136.32    6.59
   0  13   3  115.79    6.75
   0  13  -3  118.97    6.55
  -1 -13  -3    1.70    0.38
   1 -13   3    1.35    0.33
  -1  13  -3    2.30    0.53
  -1  13  -3    0.97    0.37
  -2 -13  -3   16.64    1.17
  -2  13  -3   13.01    1.17
  -2  13  -3   16.17    1.27
  -3 -13  -3   49.01    2.78
  -3 -13  -3   44.89    2.70
  -3  13  -3   42.46    2.87
  -3  13  -3   42.96    2.74
  -4 -13  -3   11.19    1.09
  -4 -13  -3   10.40    1.18
  -4  13  -3   11.42    1.47
  -4  13  -3    9.24    1.14
  -4 -14   3    0.08    0.42
  -4  14   3    0.34    0.74
  -3 -14   3    0.03    0.44
  -3  14   3    0.42    0.53
   2 -14  -3   15.50    1.19
  -2 -14   3   17.95    1.29
  -2  14   3   17.90    1.46
  -1 -14   3    1.71    0.45
   1 -14  -3    0.93    0.35
  -1  14   3    1.13    0.62
   0 -14  -3    3.40    0.51
   0 -14   3    2.47    0.47
   0  14   3    3.81    0.74
   0  14  -3    4.73    0.60
   0  14  -3    3.14    0.48
  -1 -14  -3    7.68    0.78
   1 -14   3    7.58    0.70
  -1  14  -3    6.83    0.77
  -1  14  -3    8.78    0.90
  -2 -14  -3    1.47    0.45
  -2  14  -3    0.85    0.50
  -2  14  -3    0.94    0.50
  -3 -14  -3    1.36    0.49
  -3 -14  -3    0.81    0.48
  -3  14  -3    0.46    0.56
  -3  14  -3    0.71    0.59
  -4 -14  -3    0.51    0.64
  -4 -14  -3    1.01    0.54
  -4  14  -3    0.67    0.77
  -4  14  -3    0.48    0.60
  -4 -15   3    1.98    0.61
  -4  15   3    1.32    0.74
  -3 -15   3    0.02    0.41
  -3  15   3    0.31    0.59
   2 -15  -3   18.04    1.27
  -2 -15   3   16.76    1.33
  -2  15   3   18.22    1.58
   1 -15  -3   83.53    4.61
  -1 -15   3   85.95    4.67
  -1  15   3   78.75    4.79
   0 -15  -3   14.07    1.12
   0  15  -3   13.86    1.10
   0  15  -3   16.97    1.13
   1 -15   3    0.31    0.33
  -1 -15  -3    0.51    0.34
  -1  15  -3    0.25    0.35
  -1  15  -3    1.21    0.51
  -2 -15  -3   23.80    1.57
  -2  15  -3   23.13    1.68
  -2  15  -3   21.36    1.56
  -3 -15  -3   12.81    1.22
  -3 -15  -3   11.98    1.05
  -3  15  -3   11.65    1.26
  -3  15  -3    9.78    1.11
  -4 -15  -3    7.87    0.98
  -4 -15  -3    6.22    0.97
  -4  15  -3    6.16    0.99
  -4 -16   3    1.48    0.63
  -4  16   3    1.87    0.87
  -3 -16   3   23.54    1.73
  -3  16   3   22.66    1.91
  -2 -16   3    5.53    0.77
   2 -16  -3    6.80    0.75
  -2  16   3    5.51    0.95
   1 -16  -3    0.39    0.33
  -1 -16   3    0.18    0.40
  -1  16   3    0.15    0.66
   0 -16  -3   56.45    3.25
   0  16  -3   54.67    3.16
  -1 -16  -3    4.56    0.70
   1 -16   3    5.28    0.67
  -1  16  -3    7.04    0.87
  -1  16  -3    6.86    0.74
  -2 -16  -3   46.99    2.85
  -2  16  -3   47.36    2.94
  -2  16  -3   48.14    2.84
  -3 -16  -3    0.19    0.50
  -3 -16  -3    0.89    0.49
  -3  16  -3   -0.43    0.58
  -3  16  -3   -0.26    0.49
  -4 -16  -3    3.30    0.79
  -4 -16  -3    2.83    0.70
  -4  16  -3    2.62    0.80
  -4  16  -3    0.88    0.55
  -4 -17   3    0.49    0.61
  -4  17   3    0.47    0.74
  -3 -17   3    0.92    0.49
  -3  17   3    0.30    0.66
   2 -17  -3    0.39    0.36
  -2 -17   3   -0.01    0.37
  -2  17   3    1.13    0.72
  -1 -17   3    3.75    0.67
   1 -17  -3    3.32    0.60
  -1  17   3    5.23    0.95
   0 -17   3    0.67    0.41
   0 -17  -3    1.01    0.48
   0  17  -3    1.62    0.45
  -1 -17  -3    3.67    0.67
   1 -17   3    3.88    0.62
  -1  17  -3    4.16    0.75
  -1  17  -3    3.99    0.62
  -2 -17  -3   17.71    1.40
  -2  17  -3   19.96    1.42
  -2  17  -3   19.32    1.55
  -3 -17  -3    0.40    0.48
  -3 -17  -3    0.43    0.39
  -3  17  -3    2.44    0.65
  -3  17  -3    1.44    0.70
  -4 -17  -3    0.64    0.61
  -4 -17  -3    0.59    0.56
  -4  17  -3    1.34    0.66
  -4  17  -3    0.46    0.72
  -4 -18   3   10.53    1.29
  -4  18   3   10.10    1.48
  -3 -18   3   28.87    2.04
  -3  18   3   26.40    2.21
   2 -18  -3    8.12    0.90
  -2 -18   3    7.39    0.94
  -2  18   3    9.46    1.27
  -1 -18   3   -0.22    0.40
   1 -18  -3    0.36    0.41
  -1  18   3   -0.51    0.67
   0 -18  -3   52.11    3.04
   0  18  -3   48.73    2.90
   1 -18   3   42.89    2.68
  -1 -18  -3   39.24    2.70
  -1  18  -3   50.29    2.81
  -1  18  -3   43.90    2.63
  -2 -18  -3   35.41    2.46
  -2  18  -3   39.21    2.41
  -2  18  -3   42.03    2.60
  -3 -18  -3    7.13    0.94
  -3  18  -3    8.00    0.95
  -3  18  -3    7.11    1.09
  -3 -19   3    0.70    0.63
  -3  19   3    0.09    0.67
  -2 -19   3    2.22    0.62
   2 -19  -3    1.31    0.49
  -2  19   3    1.97    0.86
   1 -19  -3    8.74    1.03
  -1 -19   3   10.84    1.14
  -1  19   3   12.50    1.49
   0 -19  -3   11.28    1.11
   0 -19   3    8.03    0.99
   0  19  -3    9.68    0.90
   1 -19   3    6.74    0.84
  -1 -19  -3    5.82    0.86
  -1  19  -3    6.10    0.75
  -1  19  -3    7.80    1.03
  -2 -19  -3    1.11    0.53
  -2  19  -3    0.81    0.50
  -2  19  -3    1.24    0.68
  -3 -19  -3   -0.29    0.44
  -3 -19  -3    0.42    0.50
  -3  19  -3    0.42    0.52
  -3  19  -3    0.14    0.63
  -3 -20   3    5.81    0.97
  -3  20   3    6.49    1.18
  -2 -20   3   21.62    1.69
   2 -20  -3   19.53    1.56
  -2  20   3   23.13    1.95
   1 -20  -3    4.36    0.73
  -1 -20   3    5.17    0.82
  -1  20   3    5.75    1.13
   0 -20  -3    4.98    0.78
   0 -20   3    3.33    0.69
   0  20  -3    5.78    0.71
  -1 -20  -3   76.82    4.60
   1 -20   3   73.13    4.53
  -1  20  -3   78.16    4.49
  -1  20  -3   89.68    4.69
  -2 -20  -3   10.22    1.13
  -2  20  -3   11.91    1.33
  -2  20  -3   10.68    1.05
  -3 -20  -3    7.99    1.09
  -3 -20  -3    9.35    1.11
  -3  20  -3    7.31    0.97
  -3  20  -3    7.99    1.19
  -3 -21   3   -0.54    0.52
  -3  21   3    0.32    0.85
  -2 -21   3    1.30    0.68
  -2  21   3    1.05    0.85
  -1 -21   3    6.08    0.93
   1 -21  -3    7.32    0.98
  -1  21   3   10.81    1.37
   0 -21   3    1.41    0.57
   0 -21  -3    3.45    0.69
   0  21  -3    1.99    0.49
   1 -21   3    3.60    0.68
  -1 -21  -3    3.24    0.76
  -1  21  -3    3.54    0.67
  -1  21  -3    4.57    0.90
  -2 -21  -3    3.50    0.78
  -2  21  -3    4.42    0.91
  -2  21  -3    3.05    0.63
  -3 -21  -3    0.65    0.65
  -3 -21  -3    1.04    0.61
  -3  21  -3    0.65    0.77
  -3 -22   3    2.05    0.72
  -3  22   3    1.81    0.97
  -2 -22   3    4.34    0.87
  -2  22   3    6.50    1.22
  -1 -22   3    0.24    0.61
   1 -22  -3    0.59    0.55
  -1  22   3   -0.59    0.73
   0 -22  -3    1.52    0.66
   0 -22   3    1.03    0.57
  -1 -22  -3    5.38    0.90
   1 -22   3    4.52    0.80
  -1  22  -3    5.87    0.79
  -2 -22  -3    0.16    0.54
  -2  22  -3    2.14    0.59
  -2 -23   3    0.62    0.59
  -2  23   3    0.61    0.82
   1 -23  -3    4.38    0.88
  -1 -23   3    3.24    0.81
  -1  23   3    3.60    1.03
   0 -23  -3    0.38    0.57
   0 -23   3    0.64    0.58
  -1 -23  -3    0.65    0.66
  -1  23  -3    0.81    0.49
  -2 -23  -3    0.42    0.64
  -2 -24   3    1.01    0.73
  -2  24   3    0.06    0.94
  -1 -24   3    2.51    0.81
   1 -24  -3    2.68    0.80
  -1  24   3    3.38    1.12
   0 -24  -3   -0.41    0.57
   0 -24   3    0.20    0.58
  -1 -24  -3    2.35    0.77
  -1  24  -3    2.69    0.63
  -1 -25   3    0.60    0.70
   1 -25  -3    0.72    0.67
   0 -25  -3    1.50    0.73
   0 -25   3    0.62    0.66
  -1 -25  -3    2.27    0.80
  -5   0   4    5.40    0.82
  -4   0   4    4.12    0.62
  -4   0   4    3.25    0.54
  -3   0   4   75.39    4.20
   3   0  -4   77.88    4.25
   2   0  -4    7.17    0.66
   1   0  -4  246.62   13.70
  -1   0   4  274.08   13.66
   0   0  -4   50.88    2.76
   0   0  -4   50.04    2.76
  -1   0  -4   32.55    1.78
  -1   0  -4   29.95    1.73
  -2   0  -4  185.06    9.71
  -2   0  -4  181.09    9.58
  -3   0  -4   10.49    0.90
  -4   0  -4   19.17    1.47
  -5   0  -4    5.16    0.95
  -5  -1   4    0.03    0.50
  -5   1   4    0.31    0.51
  -4  -1   4   90.36    5.22
  -4  -1   4   99.46    5.28
  -4   1   4   95.05    5.25
   3  -1  -4  101.37    5.53
  -3   1   4  100.97    5.47
   3   1  -4  101.54    5.52
   2  -1  -4  300.23   15.72
   2   1  -4  296.52   15.70
   1  -1  -4    1.72    0.31
  -1  -1   4    2.55    0.27
   1   1  -4    2.58    0.24
   1   1  -4    1.61    0.32
  -1   1   4    2.89    0.33
   0  -1  -4  117.01    5.86
   0  -1  -4  109.74    5.82
   0   1  -4  112.11    5.85
   0   1  -4  101.92    5.87
  -1  -1  -4  652.83   32.83
  -1   1  -4  615.03   32.78
  -1   1  -4  621.32   32.79
  -2  -1  -4  173.24    9.04
  -2  -1  -4  169.12    9.13
  -2   1  -4  169.99    9.14
  -2   1  -4  175.61    9.01
  -3  -1  -4   77.15    4.38
  -3   1  -4   79.59    4.40
  -4  -1  -4    1.12    0.58
  -4   1  -4    2.39    0.63
  -5  -1  -4    1.15    0.68
  -5   1  -4    0.78    0.70
  -5  -2   4    0.70    0.55
  -5   2   4    0.29    0.50
  -4  -2   4    0.91    0.40
  -4  -2   4    0.32    0.37
  -4   2   4    0.58    0.39
   3  -2  -4   18.24    1.22
  -3   2   4   17.60    1.13
   3   2  -4   16.31    1.17
   2  -2  -4   14.62    1.01
  -2   2   4   15.92    1.04
   2   2  -4   11.90    0.97
   1  -2  -4   20.79    1.32
   1   2  -4   20.80    1.35
   1   2  -4   23.65    1.26
  -1   2   4   23.05    1.32
   0  -2  -4    3.00    0.34
   0  -2  -4    3.88    0.31
   0   2  -4    4.48    0.39
  -1   2  -4    5.08    0.46
  -1   2  -4    4.98    0.39
  -2  -2  -4   16.92    1.09
  -2  -2  -4   16.90    1.01
  -2   2  -4   17.63    1.12
  -2   2  -4   15.51    0.94
  -3  -2  -4    2.57    0.51
  -3  -2  -4    3.28    0.37
  -3   2  -4    3.35    0.56
  -4  -2  -4    1.84    0.58
  -4   2  -4    2.71    0.63
  -5  -2  -4    0.82    0.71
  -5   2  -4    0.50    0.65
  -5  -3   4    1.71    0.66
  -5   3   4    2.62    0.64
  -4  -3   4    3.23    0.59
  -4  -3   4    3.94    0.60
  -4   3   4    3.63    0.57
   3  -3  -4   91.68    5.15
  -3   3   4   94.13    5.06
  -3   3   4   95.58    5.28
   2  -3  -4   26.82    1.68
  -2   3   4   29.41    1.74
  -2   3   4   26.82    1.54
   1  -3  -4    9.71    0.70
   1   3  -4    9.44    0.71
  -1   3   4    9.65    0.70
   1   3  -4    9.78    0.63
   0  -3  -4  113.69    5.82
   0  -3  -4  112.34    5.74
   0   3  -4  101.99    5.86
   0   3  -4  108.34    5.82
  -1  -3  -4   58.97    3.26
  -1  -3  -4   63.76    3.27
  -1   3  -4   60.17    3.24
  -1   3  -4   58.33    3.31
  -2  -3  -4  127.88    6.95
  -2  -3  -4  130.24    6.88
  -2   3  -4  132.18    6.80
  -2   3  -4  129.25    6.97
  -3  -3  -4    5.16    0.66
  -3  -3  -4    6.21    0.52
  -3   3  -4    5.18    0.69
  -4  -3  -4    0.63    0.47
  -4   3  -4    0.11    0.45
  -5  -3  -4    3.33    0.82
  -5   3  -4    3.33    0.80
  -5  -4   4    1.64    0.65
  -5   4   4    0.50    0.86
  -5   4   4    0.62    0.76
  -4  -4   4    9.69    0.94
  -4  -4   4   11.53    1.05
  -4   4   4   13.10    1.30
  -4   4   4   10.69    0.94
   3  -4  -4   27.47    1.76
  -3  -4   4   28.44    1.78
  -3   4   4   28.34    1.65
  -3   4   4   26.77    1.85
   2  -4  -4   21.66    1.34
  -2   4   4   20.18    1.18
   2   4  -4   20.07    1.31
  -2   4   4   21.39    1.38
   1  -4  -4   90.73    5.18
   1   4  -4   96.55    5.21
  -1   4   4   94.56    5.03
  -1   4   4   95.28    5.21
   1   4  -4  106.03    5.16
   0  -4  -4    8.39    0.50
   0  -4  -4    7.75    0.59
   0   4  -4    8.23    0.60
   0   4  -4    8.44    0.48
   0   4  -4    8.95    0.68
  -1  -4  -4   96.03    5.16
  -1  -4  -4   98.06    5.17
  -1   4  -4   98.71    5.14
  -1   4  -4   94.34    5.23
  -2  -4  -4   30.64    1.82
  -2  -4  -4   30.30    1.76
  -2   4  -4   31.67    1.86
  -3  -4  -4   11.90    1.01
  -3  -4  -4   12.99    0.88
  -3   4  -4   13.22    1.06
  -4  -4  -4   25.24    1.79
  -4   4  -4   24.66    1.77
  -5  -4  -4    2.35    0.74
  -5   4  -4    1.97    0.70
  -5  -5   4    0.12    0.51
  -5   5   4    0.41    0.77
  -4  -5   4   21.87    1.54
  -4   5   4   23.01    1.52
  -4   5   4   22.33    1.82
   3  -5  -4    4.98    0.62
  -3  -5   4    4.46    0.63
  -3   5   4    4.72    0.71
  -3   5   4    3.82    0.46
   2  -5  -4   20.70    1.34
  -2   5   4   21.56    1.42
   2   5  -4   21.49    1.34
  -2   5   4   20.85    1.19
   1   5  -4   63.30    3.74
   1   5  -4   73.18    3.71
  -1   5   4   68.26    3.78
   0  -5  -4    2.28    0.30
   0  -5  -4    2.28    0.20
   0   5   4    2.06    0.38
   0   5  -4    2.97    0.40
   0   5  -4    2.04    0.30
   0   5  -4    2.40    0.22
  -1  -5  -4   81.97    4.39
  -1  -5  -4   83.38    4.41
  -1   5  -4   82.69    4.37
  -1   5  -4   79.65    4.47
   2  -5   4    0.61    0.11
  -2  -5  -4    0.59    0.28
  -2  -5  -4    0.55    0.22
  -2   5  -4    0.15    0.28
  -3  -5  -4   25.36    1.68
  -3  -5  -4   25.14    1.52
  -3   5  -4   24.55    1.65
  -4  -5  -4    3.89    0.77
  -4   5  -4    5.22    0.81
  -5  -5  -4    1.15    0.66
  -5   5  -4    0.73    0.68
  -5  -6   4    0.17    0.58
  -5   6   4   -0.40    0.77
  -4  -6   4    3.25    0.59
  -4   6   4    5.59    1.00
  -4   6   4    4.12    0.58
  -3  -6   4   24.26    1.62
   3  -6  -4   23.90    1.62
  -3   6   4   24.99    1.73
  -3   6   4   24.39    1.46
   2  -6  -4   25.03    1.52
  -2  -6   4   23.69    1.56
  -2   6   4   24.65    1.60
  -2   6   4   23.89    1.35
  -1   6   4  248.15   13.41
   1   6  -4  273.97   13.34
   1   6  -4  239.47   13.35
   0  -6  -4    6.71    0.54
   0  -6  -4    7.29    0.43
   0   6  -4    6.97    0.46
   0   6  -4    7.04    0.61
   0   6  -4    6.60    0.54
   0   6   4    6.58    0.65
  -1  -6  -4   51.05    2.86
  -1  -6  -4   53.30    2.90
  -1   6  -4   53.53    2.98
  -2  -6  -4   28.30    1.72
  -2  -6  -4   28.80    1.68
   2  -6   4   28.56    1.53
  -2   6  -4   29.39    1.78
  -3  -6  -4    4.01    0.62
  -3  -6  -4    3.32    0.45
  -3   6  -4    3.28    0.58
  -4  -6  -4   19.77    1.54
  -4   6  -4   19.24    1.56
  -5  -6  -4    0.05    0.60
  -5   6  -4    0.02    0.62
  -5  -7   4    4.98    0.94
  -5   7   4    4.75    1.17
  -4  -7   4   23.18    1.63
  -4   7   4   22.51    1.87
  -4   7   4   25.26    1.92
   3  -7  -4  107.89    6.09
  -3  -7   4  111.95    6.11
  -3   7   4  110.61    6.22
  -3   7   4  113.42    5.94
  -2  -7   4   63.73    3.56
   2  -7  -4   63.39    3.51
  -2   7   4   62.56    3.59
  -2   7   4   61.18    3.33
  -1  -7   4    0.86    0.31
   1  -7  -4    0.31    0.13
  -1   7   4    0.62    0.32
   1   7  -4    1.06    0.24
   0  -7  -4  197.74   10.14
   0  -7   4  199.51   10.29
   0  -7  -4  201.60   10.27
   0   7   4  187.78   10.37
   0   7  -4  205.58   10.19
   0   7  -4  173.33   10.29
  -1  -7  -4  190.65   10.23
  -1  -7  -4  202.88   10.19
   1  -7   4  208.13   10.20
  -1   7  -4  181.52   10.24
  -1   7  -4  185.19   10.31
  -2  -7  -4  165.37    8.38
  -2  -7  -4  142.29    8.38
   2  -7   4  163.78    8.24
  -2   7  -4  157.78    8.45
  -3  -7  -4   15.08    1.16
  -3  -7  -4   14.25    1.00
  -3   7  -4   12.10    1.08
  -4  -7  -4    0.59    0.51
  -4   7  -4    1.41    0.54
  -5  -7  -4    2.33    0.76
  -5   7  -4    1.98    0.72
  -5  -8   4    1.68    0.68
  -5   8   4    1.85    0.97
  -4  -8   4    2.73    0.57
  -4   8   4    2.94    0.83
   3  -8  -4    1.06    0.43
  -3  -8   4    3.33    0.54
  -3   8   4    0.35    0.26
  -3   8   4    0.87    0.49
   2  -8  -4   92.47    5.21
  -2  -8   4   90.17    5.25
  -2   8   4  100.66    5.06
  -2   8   4   97.81    5.33
  -1  -8   4   15.78    1.14
  -1   8   4   17.34    1.25
   1   8  -4   17.86    1.09
   0  -8   4   94.55    5.09
   0  -8  -4   97.06    5.07
   0  -8  -4   93.41    4.94
   0   8  -4   84.59    5.09
   0   8  -4   99.27    5.00
   0   8   4   93.61    5.20
  -1  -8  -4   53.16    2.85
   1  -8   4   56.94    2.88
  -1  -8  -4   49.80    2.89
  -1   8  -4   50.13    2.91
  -1   8  -4   49.51    2.99
  -2  -8  -4    1.65    0.35
  -2   8  -4    1.90    0.43
  -3  -8  -4   48.29    2.77
  -3  -8  -4   46.36    2.85
  -3   8  -4   49.71    2.90
  -4  -8  -4    0.48    0.52
  -4   8  -4    1.15    0.60
  -5  -8  -4    5.10    1.03
  -5   8  -4    4.78    0.99
  -5  -9   4    9.52    1.26
  -5   9   4    9.43    1.43
  -4  -9   4   13.39    1.12
  -4   9   4   10.20    1.30
  -3  -9   4  160.77    8.65
   3  -9  -4  160.49    8.64
  -3   9   4  156.96    8.45
  -3   9   4  160.83    8.78
   2  -9  -4   20.16    1.39
  -2  -9   4   22.77    1.49
  -2   9   4   21.78    1.26
  -2   9   4   22.68    1.56
  -1  -9   4   31.68    1.95
   1   9  -4   33.47    1.88
  -1   9   4   31.01    2.03
   0  -9  -4  193.68   10.35
   0  -9   4  203.00   10.38
   0   9  -4  209.36   10.29
   0   9   4  193.18   10.49
   0   9  -4  177.43   10.36
  -1  -9  -4  148.65    8.09
   1  -9   4  172.00    8.08
  -1  -9  -4  151.88    8.04
  -1   9  -4  149.11    8.11
  -1   9  -4  137.26    8.16
  -2  -9  -4  194.31   10.02
  -2   9  -4  186.01   10.12
  -2   9  -4  184.86   10.08
  -3  -9  -4    7.23    0.74
  -3  -9  -4    7.77    0.87
  -3   9  -4    6.65    0.81
  -4  -9  -4    0.29    0.52
  -4   9  -4    0.60    0.52
  -5 -10   4    2.01    0.77
  -5  10   4    0.67    0.77
  -4 -10   4    9.09    1.03
  -4  10   4    9.07    1.22
  -3 -10   4    3.10    0.61
   3 -10  -4    3.12    0.59
  -3  10   4    3.23    0.75
  -2 -10   4   31.47    1.88
   2 -10  -4   29.87    1.81
  -2  10   4   32.80    2.00
  -2  10   4   26.07    1.62
  -1 -10   4   17.19    1.26
   1  10  -4   20.41    1.22
  -1  10   4   18.33    1.39
   0 -10   4   17.40    1.16
   0 -10  -4   16.02    1.11
   0  10  -4   14.54    1.13
   0  10   4   17.69    1.29
   0  10  -4   18.82    1.07
  -1 -10  -4   47.99    2.72
   1 -10   4   51.01    2.75
  -1 -10  -4   50.52    2.80
  -1  10  -4   49.54    2.88
  -1  10  -4   46.81    2.79
  -2 -10  -4    3.21    0.47
  -2 -10  -4    3.09    0.46
  -2  10  -4    3.20    0.59
  -2  10  -4    2.32    0.51
  -3 -10  -4   15.90    1.28
  -3 -10  -4   16.53    1.19
  -3  10  -4   16.24    1.43
  -3  10  -4   15.84    1.27
  -4 -10  -4    9.07    1.10
  -4  10  -4   10.43    1.46
  -4  10  -4    7.96    1.06
  -5 -11   4   -0.63    0.61
  -5  11   4    0.55    0.83
  -4 -11   4    5.43    0.79
  -4  11   4    5.69    1.06
   3 -11  -4   41.94    2.64
  -3 -11   4   41.18    2.56
  -3  11   4   40.60    2.69
  -2 -11   4   65.36    3.44
   2 -11  -4   57.79    3.34
  -2  11   4   59.39    3.51
  -2  11   4   54.77    3.19
  -1 -11   4    6.66    0.70
  -1  11   4    6.43    0.84
   1  11  -4    7.01    0.61
   0 -11  -4   23.82    1.51
   0 -11   4   26.44    1.55
   0  11  -4   24.37    1.45
   0  11  -4   22.55    1.52
   0  11   4   24.11    1.70
   1 -11   4   70.84    3.76
  -1 -11  -4   62.62    3.77
  -1  11  -4   70.91    3.88
  -1  11  -4   68.16    3.81
  -2 -11  -4   45.44    2.65
  -2 -11  -4   48.40    2.68
  -2  11  -4   44.24    2.74
  -2  11  -4   44.45    2.76
  -3 -11  -4    3.15    0.53
  -3 -11  -4    1.81    0.56
  -3  11  -4    2.01    0.57
  -3  11  -4    2.22    0.70
  -4 -11  -4   -0.06    0.58
  -4  11  -4    0.40    0.50
  -4  11  -4   -0.12    0.44
  -4 -12   4   -0.22    0.45
  -4  12   4    0.52    0.62
  -3 -12   4    0.80    0.49
  -3  12   4   -0.20    0.53
   2 -12  -4   27.11    1.80
  -2 -12   4   30.47    1.92
  -2  12   4   30.20    2.01
  -1 -12   4   22.13    1.51
  -1  12   4   22.51    1.67
   1  12  -4   23.85    1.45
   0 -12  -4   87.35    5.15
   0 -12   4   92.93    5.18
   0  12   4   97.61    5.36
   0  12  -4   89.72    5.16
   0  12  -4  103.28    5.10
   1 -12   4   21.68    1.35
  -1 -12  -4   21.25    1.37
  -1  12  -4   19.69    1.39
  -1  12  -4   20.35    1.41
  -2 -12  -4   12.14    0.97
  -2 -12  -4   13.92    0.98
  -2  12  -4   10.88    1.02
  -2  12  -4    9.10    1.02
  -3 -12  -4   10.48    1.04
  -3 -12  -4   10.90    1.10
  -3  12  -4   13.24    1.36
  -3  12  -4   10.50    1.13
  -4 -12  -4    2.29    0.73
  -4  12  -4    0.84    0.49
  -4  12  -4    4.24    0.84
  -4 -13   4    2.34    0.64
  -4  13   4    2.28    0.85
  -3 -13   4   -0.02    0.44
  -3  13   4    0.38    0.52
  -2 -13   4   28.45    1.90
   2 -13  -4   29.82    1.84
  -2  13   4   28.59    2.02
  -1 -13   4   -0.05    0.31
   1 -13  -4   -0.02    0.08
  -1  13   4   -0.11    0.43
   1  13  -4    0.23    0.25
   0 -13  -4   13.49    1.03
   0 -13   4   12.25    1.02
   0  13  -4   15.28    0.98
   0  13  -4   14.10    1.04
   1 -13   4   11.96    0.96
  -1 -13  -4   12.95    1.03
  -1  13  -4   14.72    1.08
  -1  13  -4   12.51    1.03
  -2 -13  -4    6.94    0.76
  -2 -13  -4    5.97    0.68
  -2  13  -4    6.11    0.82
  -2  13  -4    5.48    0.76
  -3 -13  -4    2.91    0.61
  -3 -13  -4    1.95    0.50
  -3  13  -4    2.80    0.69
  -3  13  -4    2.45    0.75
  -4 -13  -4    3.36    0.86
  -4 -13  -4    3.09    0.79
  -4  13  -4    2.47    0.87
  -4  13  -4    1.97    0.74
  -4 -14   4   -0.26    0.51
  -4  14   4    0.30    0.63
  -3 -14   4    0.53    0.48
  -3  14   4    1.49    0.60
   2 -14  -4   67.24    3.83
  -2 -14   4   70.45    3.93
  -2  14   4   64.74    4.02
  -1 -14   4   38.86    2.30
  -1  14   4   35.28    2.42
   0 -14  -4  141.12    7.78
   0 -14   4  147.58    7.81
   0  14  -4  139.18    7.77
   0  14  -4  148.29    7.69
   1 -14   4    0.33    0.30
  -1 -14  -4    0.18    0.31
  -1  14  -4    0.16    0.35
  -1  14  -4    0.62    0.43
  -2 -14  -4    2.10    0.47
  -2 -14  -4    0.89    0.44
  -2  14  -4    0.95    0.51
  -2  14  -4    1.00    0.47
  -3 -14  -4   42.33    2.57
  -3 -14  -4   41.45    2.50
  -3  14  -4   38.33    2.59
  -3  14  -4   38.18    2.62
  -4 -14  -4    2.82    0.70
  -4 -14  -4    2.21    0.71
  -4  14  -4    2.94    0.80
  -4  14  -4    1.97    0.85
  -4 -15   4    3.81    0.82
  -4  15   4    2.76    0.92
  -3 -15   4    9.69    1.11
  -3  15   4   10.86    1.34
  -2 -15   4    0.39    0.41
   2 -15  -4    1.10    0.40
  -2  15   4    0.54    0.66
  -1 -15   4   -0.02    0.35
   1 -15  -4    0.15    0.13
  -1  15   4    0.47    0.59
   0 -15  -4   39.36    2.40
   0 -15   4   39.82    2.41
   0  15  -4   39.07    2.40
   1 -15   4   23.87    1.62
  -1 -15  -4   23.87    1.68
  -1  15  -4   27.22    1.72
  -1  15  -4   24.76    1.67
  -2 -15  -4   12.61    1.15
  -2 -15  -4   15.51    1.12
  -2  15  -4   14.74    1.25
  -2  15  -4   13.44    1.17
  -3 -15  -4    0.27    0.24
  -3 -15  -4    2.44    0.59
  -3  15  -4    1.41    0.67
  -3  15  -4    1.39    0.63
  -4 -15  -4    0.73    0.67
  -4 -15  -4    0.65    0.57
  -4  15  -4    0.66    0.79
  -4  15  -4    0.42    0.69
  -4 -16   4    2.12    0.71
  -4  16   4    1.78    0.87
  -3 -16   4    1.54    0.58
  -3  16   4    2.76    0.85
   2 -16  -4   34.69    2.13
  -2 -16   4   33.81    2.19
  -2  16   4   31.05    2.36
  -1 -16   4   50.93    3.02
  -1  16   4   49.14    3.21
   0 -16  -4   54.21    3.11
   0 -16   4   50.75    3.09
   0  16  -4   52.27    3.06
  -1 -16  -4    4.88    0.70
   1 -16   4    3.61    0.60
  -1  16  -4    3.50    0.68
  -1  16  -4    4.97    0.68
  -2 -16  -4    4.08    0.69
  -2  16  -4    4.82    0.80
  -2  16  -4    5.82    0.78
  -3 -16  -4   12.74    1.20
  -3 -16  -4    8.32    1.02
  -3  16  -4   11.09    1.24
  -3  16  -4    9.75    1.11
  -4 -16  -4    7.60    1.04
  -4 -16  -4    7.30    1.10
  -4  16  -4    6.27    1.06
  -4  16  -4    9.11    1.32
  -4 -17   4   10.80    1.22
  -4  17   4    8.97    1.35
  -3 -17   4    7.57    0.99
  -3  17   4    6.50    1.09
  -2 -17   4   20.01    1.54
   2 -17  -4   17.60    1.39
  -2  17   4   19.00    1.70
  -1 -17   4   10.62    1.13
  -1  17   4   12.61    1.44
   0 -17  -4    6.01    0.78
   0 -17   4    6.14    0.81
   0  17  -4    6.33    0.78
  -1 -17  -4   56.98    3.49
   1 -17   4   58.35    3.45
  -1  17  -4   56.37    3.42
  -1  17  -4   65.71    3.52
  -2 -17  -4    9.62    1.10
  -2  17  -4   12.20    1.14
  -2  17  -4   11.81    1.14
  -3 -17  -4    4.27    0.74
  -3 -17  -4    5.75    0.83
  -3  17  -4    5.01    0.92
  -3  17  -4    3.69    0.72
  -4 -18   4    2.06    0.71
  -4  18   4    0.84    0.77
  -3 -18   4    0.83    0.62
  -3  18   4    0.99    0.75
  -2 -18   4   -0.04    0.50
   2 -18  -4    0.91    0.42
  -2  18   4    0.78    0.66
  -1 -18   4   17.82    1.42
  -1  18   4   19.14    1.72
   0 -18  -4    4.47    0.73
   0 -18   4    6.15    0.81
   0  18  -4    4.23    0.65
  -1 -18  -4    1.43    0.58
   1 -18   4    2.30    0.54
  -1  18  -4    1.80    0.63
  -1  18  -4    1.79    0.53
  -2 -18  -4   19.37    1.52
  -2  18  -4   17.55    1.42
  -2  18  -4   19.44    1.54
  -3 -18  -4    0.18    0.54
  -3 -18  -4    0.18    0.49
  -3  18  -4    0.46    0.57
  -3  18  -4   -0.27    0.62
  -3 -19   4    3.40    0.77
  -3  19   4    2.12    0.90
   2 -19  -4   15.39    1.28
  -2 -19   4   14.82    1.45
  -2  19   4   14.51    1.50
  -1 -19   4   -0.32    0.39
   1 -19  -4    0.06    0.18
  -1  19   4    0.74    0.79
   0 -19  -4    2.72    0.65
   0 -19   4    3.29    0.70
   0  19  -4    2.95    0.60
   1 -19   4   14.35    1.28
  -1 -19  -4   16.52    1.41
  -1  19  -4   16.86    1.29
  -2 -19  -4    0.95    0.60
  -2  19  -4    2.52    0.74
  -2  19  -4    1.85    0.57
  -3 -19  -4    0.32    0.58
  -3 -19  -4    0.55    0.56
  -3  19  -4    0.39    0.64
  -3  19  -4    0.30    0.57
  -3 -20   4   -0.12    0.60
  -3  20   4    1.55    0.90
  -2 -20   4    9.40    1.15
   2 -20  -4   10.25    1.12
  -2  20   4   11.24    1.44
  -1 -20   4    5.46    0.87
  -1  20   4    6.29    1.18
   0 -20   4   11.55    1.23
   0 -20  -4   11.19    1.23
   0  20  -4   11.17    1.00
  -1 -20  -4    4.05    0.83
   1 -20   4    3.70    0.69
  -1  20  -4    4.91    0.72
  -2 -20  -4    2.34    0.71
  -2  20  -4    1.62    0.59
  -3 -20  -4    3.17    0.82
  -3 -20  -4    3.23    0.77
  -3  20  -4    2.75    0.70
  -3 -21   4    1.97    0.77
  -3  21   4    1.64    0.93
   2 -21  -4    0.62    0.51
  -2 -21   4    1.19    0.61
  -2  21   4    1.31    0.92
  -1 -21   4    5.56    0.91
  -1  21   4    6.83    1.24
   0 -21   4    0.55    0.54
   0 -21  -4    0.20    0.48
   0  21  -4    0.22    0.39
  -1 -21  -4   -0.30    0.52
   1 -21   4   -0.21    0.51
  -1  21  -4    1.07    0.55
  -2 -21  -4   -0.09    0.56
  -2  21  -4    0.81    0.54
  -2 -22   4    6.72    1.10
  -2  22   4    5.79    1.16
  -1 -22   4   37.26    2.78
  -1  22   4   48.26    3.09
   0 -22   4   16.51    1.48
   0 -22  -4   17.22    1.47
   0  22  -4   13.62    1.31
  -1 -22  -4    9.37    1.21
  -1  22  -4   12.22    1.17
  -2 -22  -4    1.79    0.69
  -2  22  -4    2.44    0.65
  -2 -23   4   -0.51    0.53
  -2  23   4   -0.05    0.88
  -1 -23   4    5.32    0.98
  -1  23   4    6.11    1.24
   0 -23   4    0.65    0.62
   0 -23  -4   -0.47    0.52
   0  23  -4   -0.22    0.42
  -1 -23  -4    4.82    0.91
  -1  23  -4    3.47    0.69
  -2 -23  -4    0.04    0.56
  -2  23  -4    0.54    0.55
   1 -24  -4   12.07    1.54
  -1 -24   4   19.85    1.73
  -1  24   4   21.96    1.86
   0 -24  -4   10.74    1.37
   0 -24   4   10.64    1.26
  -1 -24  -4    7.34    1.16
  -1  24  -4    5.32    0.83
  -1 -25   4   -0.20    0.59
   1 -25  -4    0.93    0.71
   0 -25   4    2.26    0.82
   0 -25  -4    1.36    0.78
  -5   0   5   -0.34    0.46
   4   0  -5   -0.18    0.33
  -4   0   5   -0.34    0.33
   3   0  -5    0.10    0.32
  -2   0   5    0.21    0.23
   2   0  -5   -0.06    0.22
   1   0  -5    0.13    0.11
   1   0  -5    0.14    0.21
  -1   0   5    0.10    0.15
   0   0  -5   -0.26    0.14
   0   0  -5   -0.05    0.17
  -1   0  -5    0.53    0.18
  -1   0  -5   -0.01    0.19
  -2   0  -5    0.08    0.17
  -2   0  -5    0.30    0.27
  -3   0  -5    0.22    0.37
  -4   0  -5    0.03    0.47
  -5   0  -5    0.04    0.57
  -5  -1   5    0.66    0.51
  -5   1   5    0.62    0.51
  -4  -1   5   11.91    1.11
   4  -1  -5   15.96    1.16
  -4  -1   5   14.50    1.14
  -4   1   5   15.60    1.13
   3  -1  -5   20.03    1.39
   3   1  -5   19.87    1.37
  -3   1   5   19.06    1.24
   2  -1  -5    0.22    0.25
   2   1  -5    0.05    0.08
  -2   1   5    0.98    0.31
   1  -1  -5  229.16   11.59
  -1  -1   5  219.11   11.62
   1  -1  -5  212.14   11.72
   1   1  -5  237.32   11.64
   1   1  -5  216.28   11.73
  -1   1   5  217.96   11.65
   0  -1  -5    1.00    0.23
   0  -1  -5    0.78    0.21
   0   1  -5    1.32    0.25
   0   1  -5    1.36    0.28
  -1  -1  -5   59.73    3.25
  -1   1  -5   61.15    3.29
  -1   1  -5   58.44    3.23
  -2  -1  -5   25.48    1.47
  -2  -1  -5   22.23    1.35
  -2   1  -5   22.64    1.33
  -2   1  -5   22.85    1.47
  -3  -1  -5    2.22    0.48
  -3   1  -5    1.64    0.46
  -4  -1  -5   26.78    1.91
  -4   1  -5   28.04    1.96
  -5  -1  -5    0.54    0.67
  -5   1  -5    0.41    0.61
  -5  -2   5    4.22    0.79
  -5   2   5    3.18    0.69
  -5   2   5    4.51    1.15
  -4  -2   5   14.17    1.18
  -4  -2   5   14.19    1.17
  -4   2   5   15.58    1.13
   3  -2  -5    5.13    0.69
  -3   2   5    5.87    0.76
   3   2  -5    5.27    0.68
  -3   2   5    5.20    0.54
   2  -2  -5    0.50    0.28
  -2   2   5    0.66    0.29
   2   2  -5    0.39    0.27
   1  -2  -5   67.50    3.89
  -1  -2   5   71.29    3.78
  -1   2   5   68.94    3.85
   1   2  -5   80.15    3.85
   1   2  -5   67.46    3.92
   0  -2  -5  121.75    6.76
   0  -2  -5  135.46    6.83
   0   2  -5  127.91    6.82
  -1  -2  -5   50.86    2.79
  -1  -2  -5   52.25    2.80
  -1   2  -5   48.54    2.77
  -1   2  -5   51.57    2.84
  -2  -2  -5   13.27    0.90
  -2  -2  -5   13.95    0.98
  -2   2  -5   14.02    0.85
  -2   2  -5   15.39    1.04
  -3  -2  -5    0.44    0.37
  -3   2  -5    1.14    0.40
  -4  -2  -5    0.77    0.55
  -4   2  -5    1.74    0.58
  -5  -2  -5    4.63    0.90
  -5   2  -5    3.28    0.88
  -5  -3   5    0.44    0.49
  -5   3   5   -0.17    0.76
  -4  -3   5   43.92    2.73
  -4  -3   5   44.72    2.73
  -4   3   5   43.97    2.91
  -4   3   5   47.49    2.68
   3  -3  -5   40.46    2.44
  -3   3   5   38.55    2.46
   3   3  -5   39.86    2.40
  -3   3   5   40.09    2.26
   2  -3  -5    2.08    0.40
   2   3  -5    1.90    0.39
  -2   3   5    2.46    0.42
  -1  -3   5  756.25   37.33
   1  -3  -5  656.17   37.30
   1   3  -5  746.35   37.53
  -1   3   5  693.92   37.29
   1   3  -5  729.09   37.35
   0  -3  -5   24.27    1.27
   0  -3  -5   22.98    1.35
   0   3  -5   23.65    1.37
   0   3  -5   17.77    1.36
  -1  -3  -5  256.40   13.15
  -1  -3  -5  254.62   13.13
  -1   3  -5  248.48   13.12
  -1   3  -5  241.70   13.18
  -2  -3  -5  105.98    5.90
  -2  -3  -5  113.31    5.84
  -2   3  -5  109.17    5.78
  -2   3  -5  108.45    5.93
  -3  -3  -5    1.27    0.48
  -3  -3  -5    1.09    0.29
  -3   3  -5    0.58    0.40
  -4  -3  -5   61.95    3.77
  -4   3  -5   65.06    3.80
  -5  -3  -5   -0.02    0.59
  -5   3  -5    0.26    0.66
  -5  -4   5    9.45    1.15
  -5   4   5    9.77    1.48
  -4  -4   5   22.84    1.66
  -4   4   5   23.39    1.86
  -4   4   5   25.96    1.61
   3  -4  -5    8.94    0.92
  -3   4   5    8.86    0.91
  -3   4   5    7.90    0.65
   2  -4  -5   15.64    1.11
   2   4  -5   14.51    1.10
  -2   4   5   16.06    0.91
  -2   4   5   15.59    1.12
   1  -4  -5  145.31    7.73
  -1   4   5  146.05    7.72
   1   4  -5  143.09    7.74
   0  -4  -5  314.74   16.00
   0  -4  -5  295.53   15.89
   0   4  -5  307.39   16.05
   0   4  -5  302.87   16.00
  -1  -4  -5  187.48    9.49
  -1  -4  -5  171.88    9.45
  -1   4  -5  178.39    9.54
  -1   4  -5  180.50    9.46
  -2  -4  -5   28.29    1.67
  -2  -4  -5   29.48    1.74
  -2   4  -5   28.96    1.58
  -2   4  -5   26.95    1.75
  -3  -4  -5    9.78    0.92
  -3  -4  -5   10.24    0.79
  -3   4  -5   11.53    1.01
  -4  -4  -5    5.72    0.84
  -4   4  -5    5.74    0.88
  -5  -4  -5    4.46    0.96
  -5   4  -5    4.07    0.88
  -5  -5   5   18.64    1.61
  -5   5   5   17.02    1.82
  -4  -5   5   10.35    1.02
  -4   5   5    9.26    0.86
  -4   5   5    8.53    1.17
  -3  -5   5    0.31    0.38
   3  -5  -5    1.23    0.44
  -3   5   5    1.01    0.27
  -3   5   5    1.14    0.46
   2  -5  -5  157.81    8.39
   2   5  -5  152.57    8.38
  -2   5   5  158.93    8.41
  -2   5   5  156.17    8.19
   1  -5  -5  188.14   10.30
  -1   5   5  189.83   10.33
   1   5  -5  184.59   10.32
   1   5  -5  216.44   10.31
   0  -5  -5  414.01   20.91
   0  -5  -5  400.26   21.03
   0   5  -5  386.33   21.07
   0   5  -5  406.35   21.03
  -1  -5  -5   15.82    1.03
  -1  -5  -5   15.38    1.00
  -1   5  -5   17.15    1.13
  -1   5  -5   16.82    1.01
  -2  -5  -5    1.06    0.28
  -2  -5  -5    0.47    0.31
  -2   5  -5    1.05    0.35
  -3  -5  -5   60.17    3.25
  -3  -5  -5   56.83    3.38
  -3   5  -5   57.09    3.38
  -4  -5  -5   14.68    1.29
  -4   5  -5   13.58    1.34
  -5  -5  -5   11.96    1.34
  -5   5  -5    7.51    1.13
  -5  -6   5    7.94    1.13
  -5   6   5    9.20    1.45
  -4  -6   5    5.64    0.81
  -4   6   5    7.62    1.04
   3  -6  -5    9.60    0.96
  -3  -6   5    9.01    0.94
  -3   6   5    9.37    1.06
  -3   6   5    8.84    0.68
   2  -6  -5   20.02    1.35
  -2   6   5   23.31    1.45
  -2   6   5   20.11    1.14
   2   6  -5   18.72    1.36
   1  -6  -5   99.71    5.83
   1   6  -5  104.17    5.86
   1   6  -5  121.91    5.86
  -1   6   5  108.34    5.89
   0  -6  -5  140.27    7.39
   0  -6  -5  141.64    7.52
   0   6  -5  141.52    7.52
   0   6  -5  142.88    7.36
   0   6  -5  139.42    7.58
  -1  -6  -5   37.55    2.07
  -1  -6  -5   36.75    2.12
  -1   6  -5   36.51    2.20
  -1   6  -5   36.74    2.08
   2  -6   5    1.43    0.27
  -2  -6  -5    1.49    0.32
  -2  -6  -5    0.69    0.24
  -2   6  -5    0.90    0.39
  -3  -6  -5    8.89    0.92
  -3  -6  -5    8.44    0.75
  -3   6  -5    8.57    0.90
  -4  -6  -5   15.11    1.40
  -4   6  -5   15.37    1.34
  -5  -7   5   23.96    1.98
  -5   7   5   25.61    2.20
  -4  -7   5   -0.10    0.39
  -4   7   5    0.06    0.59
  -3  -7   5   82.45    4.55
   3  -7  -5   79.32    4.53
  -3   7   5   80.73    4.30
  -3   7   5   76.72    4.57
  -2  -7   5   74.82    4.29
   2  -7  -5   74.07    4.24
  -2   7   5   76.81    4.30
  -2   7   5   78.23    4.02
   1  -7  -5    0.63    0.27
  -1   7   5    0.46    0.35
   1   7  -5    0.84    0.28
   1   7  -5    1.92    0.36
   0  -7  -5  277.68   14.56
   0  -7  -5  284.84   14.71
   0   7  -5  297.17   14.56
   0   7  -5  271.86   14.75
   0   7  -5  265.15   14.69
  -1  -7  -5    8.22    0.67
  -1  -7  -5    8.39    0.61
  -1   7  -5    8.21    0.82
  -1   7  -5    8.20    0.65
  -2  -7  -5   58.13    3.14
  -2   7  -5   53.20    3.20
  -3  -7  -5   53.05    3.05
  -3  -7  -5   52.24    2.94
  -3   7  -5   48.79    3.05
  -4  -7  -5    2.88    0.74
  -4   7  -5    2.50    0.71
  -5  -8   5    1.22    0.71
  -5   8   5    0.37    0.81
  -4  -8   5    0.35    0.48
  -4   8   5    1.21    0.65
   3  -8  -5   10.12    1.01
  -3  -8   5    7.90    0.94
  -3   8   5   10.47    1.01
  -2  -8   5   13.19    1.08
   2  -8  -5   13.04    1.03
  -2   8   5   13.36    1.09
  -2   8   5   14.53    0.80
  -1  -8   5   19.89    1.40
   1  -8  -5   20.80    1.35
  -1   8   5   20.92    1.46
   1   8  -5   23.52    1.38
   0  -8  -5    7.70    0.47
   0  -8  -5    6.16    0.61
   0   8  -5    7.51    0.77
   0   8  -5    7.15    0.47
   1  -8   5    1.62    0.31
  -1  -8  -5    0.90    0.30
  -1  -8  -5    1.11    0.25
  -1   8  -5    1.74    0.45
  -1   8  -5    1.64    0.35
  -2  -8  -5   25.28    1.58
  -2  -8  -5   25.07    1.57
  -2   8  -5   24.75    1.68
  -3  -8  -5   13.18    1.01
  -3  -8  -5   13.82    1.10
  -3   8  -5   11.45    1.17
  -4  -8  -5    7.14    0.98
  -4   8  -5    4.76    0.86
  -5  -9   5    0.06    0.64
  -5   9   5   -0.13    0.67
  -4  -9   5    4.37    0.77
  -4   9   5    4.50    0.89
   3  -9  -5   23.21    1.65
  -3  -9   5   21.22    1.65
  -3   9   5   24.95    1.73
  -2  -9   5   23.48    1.57
   2  -9  -5   21.97    1.50
  -2   9   5   23.48    1.60
   1  -9  -5   12.77    0.92
  -1  -9   5   11.35    0.98
   1   9  -5   12.13    0.91
  -1   9   5   13.58    1.04
   0  -9  -5    8.08    0.55
   0  -9  -5    8.21    0.72
   0  -9   5    9.40    0.78
   0   9  -5    9.05    0.78
   0   9  -5   10.04    0.59
  -1  -9  -5    4.00    0.42
  -1  -9  -5    4.07    0.52
   1  -9   5    4.56    0.50
  -1   9  -5    4.42    0.65
  -1   9  -5    4.64    0.53
  -2  -9  -5   12.70    0.94
  -2  -9  -5   12.35    0.93
  -2   9  -5   10.91    0.98
  -2   9  -5   11.14    1.00
  -3  -9  -5    6.69    0.79
  -3  -9  -5    5.88    0.70
  -3   9  -5    6.70    0.87
  -4  -9  -5    0.29    0.54
  -4   9  -5    1.80    0.68
  -5 -10   5    2.62    0.83
  -5  10   5    2.95    0.94
  -4 -10   5    6.15    0.91
  -4  10   5    6.20    1.07
  -3 -10   5   16.68    1.34
   3 -10  -5   18.06    1.34
  -3  10   5   17.08    1.42
   2 -10  -5    8.53    0.83
  -2 -10   5    9.29    0.97
  -2  10   5   11.01    1.04
   1 -10  -5    0.36    0.26
  -1 -10   5    1.09    0.36
  -1  10   5    1.19    0.44
   1  10  -5    1.42    0.33
   0 -10  -5   47.90    2.74
   0 -10  -5   47.09    2.56
   0 -10   5   47.17    2.75
   0  10  -5   45.92    2.76
   0  10  -5   49.61    2.59
   1 -10   5   59.58    3.14
  -1 -10  -5   56.37    3.07
  -1 -10  -5   52.57    3.15
  -1  10  -5   57.16    3.26
  -1  10  -5   54.03    3.13
  -2 -10  -5   61.60    3.40
  -2 -10  -5   64.22    3.40
  -2  10  -5   54.20    3.44
  -2  10  -5   59.54    3.48
  -3 -10  -5    5.90    0.72
  -3 -10  -5    6.13    0.78
  -3  10  -5    4.90    0.76
  -3  10  -5    6.55    0.96
  -4 -10  -5   -0.31    0.54
  -4  10  -5    0.49    0.73
  -4  10  -5    0.54    0.60
  -5 -11   5    6.94    1.52
  -5  11   5    6.63    1.19
  -4 -11   5    7.72    1.01
  -4  11   5    9.38    1.26
   3 -11  -5    0.31    0.40
  -3 -11   5    0.14    0.40
  -3  11   5    1.02    0.60
  -2 -11   5  137.99    7.57
   2 -11  -5  135.43    7.50
  -2  11   5  141.76    7.63
  -1 -11   5   19.84    1.38
   1 -11  -5   19.36    1.31
   1  11  -5   20.89    1.33
  -1  11   5   18.64    1.43
   0 -11  -5  166.26    8.93
   0 -11   5  169.14    8.96
   0 -11  -5  159.69    8.74
   0  11  -5  176.45    8.79
   0  11  -5  163.14    8.95
   1 -11   5   23.89    1.53
  -1 -11  -5   23.22    1.45
  -1 -11  -5   25.00    1.57
  -1  11  -5   24.47    1.53
  -1  11  -5   25.74    1.65
  -2 -11  -5    0.37    0.30
  -2 -11  -5    0.25    0.33
  -2  11  -5   -0.14    0.37
  -2  11  -5    0.45    0.43
  -3 -11  -5   58.38    3.26
  -3 -11  -5   56.29    3.30
  -3  11  -5   55.77    3.42
  -3  11  -5   51.51    3.31
  -4 -11  -5    0.82    0.58
  -4  11  -5    1.00    0.59
  -4  11  -5    0.27    0.73
  -4 -12   5    6.65    0.92
  -4  12   5    7.89    1.13
   3 -12  -5   14.42    1.24
  -3 -12   5   16.53    1.35
  -3  12   5   13.91    1.32
   2 -12  -5    1.40    0.41
  -2 -12   5    0.84    0.48
  -2  12   5    1.44    0.59
   1 -12  -5   11.72    0.93
  -1 -12   5   13.03    1.02
  -1  12   5   11.40    1.09
   1  12  -5   12.51    0.97
   0 -12  -5   68.75    3.69
   0 -12  -5   61.42    3.47
   0 -12   5   66.18    3.69
   0  12  -5   63.68    3.69
   0  12  -5   66.15    3.52
  -1 -12  -5   90.75    5.13
  -1 -12  -5   89.97    5.02
   1 -12   5   93.75    5.09
  -1  12  -5   94.30    5.18
  -1  12  -5   97.18    5.12
  -2 -12  -5    9.10    0.81
  -2 -12  -5    9.01    0.88
  -2  12  -5    7.76    0.89
  -2  12  -5    8.17    0.93
  -3 -12  -5    3.39    0.69
  -3 -12  -5    3.24    0.58
  -3  12  -5    2.02    0.70
  -3  12  -5    2.23    0.68
  -4 -12  -5    2.53    0.72
  -4  12  -5    2.88    0.93
  -4  12  -5    2.75    0.78
  -4 -13   5    1.01    0.60
  -4  13   5    1.13    0.73
  -3 -13   5    1.51    0.54
  -3  13   5    1.48    0.67
   2 -13  -5   64.42    3.84
  -2 -13   5   68.95    3.94
  -2  13   5   69.35    4.05
   1 -13  -5   33.34    2.12
  -1 -13   5   33.86    2.18
  -1  13   5   34.22    2.29
   1  13  -5   37.24    2.14
   0 -13   5   93.02    5.20
   0 -13  -5   93.17    5.18
   0  13  -5   95.06    5.20
  -1 -13  -5    0.99    0.32
   1 -13   5    1.27    0.39
  -1 -13  -5    1.21    0.40
  -1  13  -5    3.91    0.58
  -1  13  -5    1.85    0.52
  -2 -13  -5    0.46    0.39
  -2 -13  -5    1.07    0.40
  -2  13  -5    1.57    0.54
  -2  13  -5    0.65    0.45
  -3 -13  -5   29.45    1.81
  -3  13  -5   26.91    1.94
  -3  13  -5   22.71    1.87
  -4 -13  -5    3.39    0.80
  -4  13  -5    3.61    0.99
  -4  13  -5    3.20    0.84
  -4 -14   5    2.65    0.71
  -4  14   5    4.82    1.02
  -3 -14   5    0.67    0.49
  -3  14   5    1.00    0.61
   2 -14  -5    0.42    0.36
  -2 -14   5   -0.20    0.39
  -2  14   5    0.49    0.63
  -1 -14   5   36.12    2.33
   1 -14  -5   38.67    2.28
  -1  14   5   36.42    2.44
   1  14  -5   36.54    2.25
   0 -14   5   29.58    1.84
   0 -14  -5   27.58    1.82
   0  14  -5   27.98    1.83
  -1 -14  -5   16.73    1.21
  -1 -14  -5   14.82    1.07
   1 -14   5   15.17    1.15
  -1  14  -5   17.87    1.23
  -1  14  -5   15.38    1.24
  -2 -14  -5    0.13    0.36
  -2 -14  -5    0.24    0.36
  -2  14  -5    0.60    0.54
  -2  14  -5   -0.12    0.43
  -3 -14  -5    3.99    0.72
  -3 -14  -5    4.92    0.75
  -3  14  -5    3.46    0.76
  -3  14  -5    3.97    0.81
  -4 -14  -5    9.20    1.20
  -4  14  -5    6.23    1.05
  -4  14  -5    8.53    1.29
  -4 -15   5   14.75    1.53
  -4  15   5   15.88    1.65
  -3 -15   5   -0.04    0.49
  -3  15   5    0.28    0.59
  -2 -15   5    1.36    0.55
   2 -15  -5    2.32    0.51
  -2  15   5    1.16    0.62
   1 -15  -5   60.56    3.57
  -1 -15   5   63.42    3.64
   1  15  -5   64.48    3.58
  -1  15   5   58.98    3.76
   0 -15  -5    3.60    0.60
   0 -15   5    3.80    0.60
   0  15  -5    2.69    0.60
  -1 -15  -5   34.43    2.11
  -1 -15  -5   32.45    2.23
   1 -15   5   33.86    2.22
  -1  15  -5   39.80    2.30
  -1  15  -5   41.41    2.28
  -2 -15  -5   10.57    0.96
  -2 -15  -5   11.28    0.94
  -2  15  -5    9.15    1.02
  -2  15  -5    7.61    0.95
  -3 -15  -5    0.22    0.44
  -3 -15  -5    0.26    0.50
  -3  15  -5    0.14    0.57
  -3  15  -5   -0.01    0.57
  -4 -15  -5    5.71    0.94
  -4  15  -5    4.84    1.07
  -4  15  -5    4.19    0.91
  -4 -16   5    0.25    0.55
  -4  16   5    0.64    0.69
  -3 -16   5    4.45    0.84
  -3  16   5    3.78    0.87
  -2 -16   5   11.06    1.17
   2 -16  -5   11.63    1.04
  -2  16   5   11.91    1.26
   1 -16  -5    8.92    0.97
  -1 -16   5   10.29    1.07
  -1  16   5   11.30    1.34
   1  16  -5   10.39    0.97
   0 -16  -5    5.25    0.74
   0 -16   5    5.96    0.79
   0  16  -5    4.89    0.73
   1 -16   5    0.84    0.41
  -1 -16  -5    1.22    0.48
  -1  16  -5    1.95    0.81
  -1  16  -5    1.13    0.46
  -2 -16  -5   12.60    1.06
  -2 -16  -5   12.30    1.11
  -2  16  -5   12.16    1.19
  -2  16  -5   12.57    1.17
  -3 -16  -5   18.84    1.50
  -3 -16  -5   19.55    1.52
  -3  16  -5   16.47    1.50
  -3  16  -5   17.23    1.49
  -4 -17   5   16.61    1.67
  -4  17   5   15.74    1.64
  -3 -17   5    6.32    0.99
  -3  17   5    4.59    1.02
  -2 -17   5   28.16    1.94
   2 -17  -5   25.42    1.78
  -2  17   5   23.88    2.01
   1 -17  -5    1.32    0.45
  -1 -17   5    0.48    0.44
  -1  17   5    1.79    0.75
   0 -17   5   -0.23    0.41
   0 -17  -5    0.28    0.41
   0  17  -5   -0.82    0.39
   1 -17   5   17.15    1.31
  -1 -17  -5   16.39    1.38
  -1  17  -5   17.60    1.31
  -2 -17  -5    0.55    0.45
  -2 -17  -5    0.42    0.41
  -2  17  -5    0.79    0.54
  -3 -17  -5    9.28    1.12
  -3 -17  -5    9.76    1.16
  -3  17  -5   10.91    1.75
  -3  17  -5    9.73    1.17
  -3 -18   5    7.26    1.07
  -3  18   5    6.79    1.14
  -2 -18   5    9.29    1.10
   2 -18  -5   10.04    1.07
  -2  18   5    8.15    1.17
   1 -18  -5    0.85    0.48
  -1 -18   5    1.60    0.55
  -1  18   5    0.92    0.70
   0 -18   5    3.51    0.68
   0 -18  -5    2.92    0.63
   0  18  -5    2.91    0.61
   1 -18   5   36.29    2.27
  -1 -18  -5   35.03    2.30
  -1  18  -5   34.53    2.25
  -2 -18  -5   24.79    1.89
  -2 -18  -5   27.38    1.79
  -2  18  -5   26.01    1.83
  -3 -18  -5   11.84    1.25
  -3 -18  -5   11.44    1.23
  -3  18  -5   11.76    1.26
  -3 -19   5   17.87    1.55
  -3  19   5   14.48    1.61
   2 -19  -5   12.88    1.18
  -2 -19   5   10.13    1.21
  -2  19   5   11.03    1.40
   1 -19  -5   13.36    1.29
  -1 -19   5   13.78    1.40
  -1  19   5   16.30    1.73
   0 -19  -5    0.26    0.42
   0 -19   5   -0.69    0.40
   0  19  -5   -0.45    0.43
  -1 -19  -5    2.13    0.61
   1 -19   5    2.44    0.59
  -1  19  -5    1.98    0.59
  -2 -19  -5   18.16    1.50
  -2  19  -5   18.06    1.45
  -3 -19  -5    2.48    0.77
  -3 -19  -5    3.86    0.82
  -3  19  -5    3.23    0.74
  -3 -20   5   10.27    1.30
  -3  20   5    6.01    1.15
  -2 -20   5    4.52    0.87
   2 -20  -5    5.51    0.87
  -2  20   5    5.08    1.04
   1 -20  -5    0.54    0.54
  -1 -20   5    0.07    0.54
  -1  20   5    0.47    0.78
   0 -20   5    7.30    0.98
   0 -20  -5    5.61    0.92
   0  20  -5    6.24    0.84
  -1 -20  -5   19.57    1.56
  -1  20  -5   18.32    1.43
  -2 -20  -5    9.40    1.13
  -2  20  -5   10.11    1.07
  -3 -20  -5    1.84    0.68
  -3 -20  -5    1.93    0.66
  -3 -21   5    5.00    0.93
  -3  21   5    4.08    1.12
  -2 -21   5    2.97    0.78
   2 -21  -5    3.68    0.75
  -2  21   5    2.90    1.02
   1 -21  -5   20.07    1.73
  -1 -21   5   18.19    1.66
  -1  21   5   25.69    1.94
   0 -21   5   -0.30    0.45
   0 -21  -5    0.46    0.53
   0  21  -5    0.51    0.52
  -1 -21  -5   -0.16    0.59
  -1  21  -5   -0.05    0.53
  -2 -21  -5    9.63    1.22
  -2  21  -5   10.48    1.11
   2 -22  -5    0.23    0.54
  -2 -22   5    0.82    0.65
  -2  22   5    0.81    0.82
  -1 -22   5    0.47    0.58
   1 -22  -5    0.02    0.59
  -1  22   5    1.05    0.82
   0 -22   5    5.41    0.94
   0 -22  -5    6.23    1.01
   0  22  -5    4.89    0.84
  -1 -22  -5    2.33    0.81
  -1  22  -5    2.15    0.68
  -2 -22  -5    1.12    0.70
  -2  22  -5    1.69    0.63
  -2 -23   5   -0.40    0.65
  -2  23   5    0.35    0.88
   1 -23  -5    2.62    0.81
  -1 -23   5    1.14    0.67
  -1  23   5    2.79    1.06
   0 -23  -5    1.24    0.73
   0 -23   5    1.00    0.67
   0  23  -5    0.29    0.49
  -1 -23  -5    0.60    0.70
  -1  23  -5    0.32    0.54
  -1 -24   5    0.78    0.65
   1 -24  -5    0.26    0.65
   0 -24  -5    0.79    0.74
   0 -24   5    0.35    0.67
   0  24  -5   -0.40    0.54
  -1  24  -5    0.37    0.54
  -5   0   6    4.51    0.76
  -5   0   6    2.66    0.97
  -4   0   6    0.49    0.37
   4   0  -6    0.65    0.43
   3   0  -6  272.61   14.46
  -3   0   6  270.45   14.41
  -2   0   6  116.65    6.15
   2   0  -6  111.49    6.25
   1   0  -6  503.58   26.96
   1   0  -6  538.25   26.87
  -1   0   6  504.73   26.85
   0   0  -6   29.88    1.82
   0   0  -6   32.30    1.83
  -1   0  -6    0.17    0.10
  -1   0  -6    0.55    0.21
  -2   0  -6  339.31   18.14
  -2   0  -6  350.77   18.06
  -3   0  -6   26.62    1.76
  -4   0  -6   43.45    2.79
  -5  -1   6    1.33    0.57
  -5   1   6    1.02    0.75
   4  -1  -6    1.84    0.54
  -4  -1   6    1.39    0.46
   4   1  -6    0.98    0.47
  -4   1   6    1.27    0.42
  -4   1   6    0.84    0.52
   3  -1  -6   67.47    3.83
  -3   1   6   65.61    3.77
   3   1  -6   64.15    3.80
   2  -1  -6    8.65    0.85
  -2  -1   6   12.03    0.83
   2   1  -6   12.11    0.98
  -2   1   6   12.26    0.86
   1  -1  -6   34.69    1.84
   1  -1  -6   31.34    1.97
  -1  -1   6   32.82    1.83
   1   1  -6   36.34    1.91
   1   1  -6   30.26    1.96
  -1   1   6   32.53    1.88
   0  -1  -6   71.23    3.92
   0  -1  -6   70.95    3.94
   0   1  -6   76.85    3.96
   0   1  -6   69.90    3.97
  -1  -1  -6   23.83    1.46
  -1  -1  -6   24.04    1.45
  -1   1  -6   25.12    1.50
  -1   1  -6   24.08    1.44
  -2  -1  -6  117.08    6.19
  -2  -1  -6  118.07    6.28
  -2   1  -6  115.61    6.29
  -2   1  -6  113.58    6.17
  -3  -1  -6    1.01    0.43
  -3   1  -6    1.27    0.45
  -4  -1  -6    7.39    1.00
  -4   1  -6    7.79    1.03
  -5  -2   6   -0.06    0.50
  -5   2   6    0.50    0.68
   4  -2  -6    2.92    0.64
  -4  -2   6    3.51    0.60
  -4   2   6    4.06    0.81
  -4   2   6    3.55    0.55
   3  -2  -6   68.14    3.81
  -3   2   6   63.78    3.57
  -3   2   6   62.89    3.73
   3   2  -6   66.17    3.77
  -2  -2   6  148.57    7.93
  -2   2   6  152.05    7.99
   2   2  -6  146.86    8.06
   1  -2  -6  135.51    7.62
   1  -2  -6  142.68    7.47
  -1  -2   6  148.29    7.47
   1   2  -6  151.72    7.59
  -1   2   6  139.50    7.55
   1   2  -6  135.31    7.64
   0  -2  -6    0.49    0.22
   0  -2  -6    0.56    0.20
   0   2  -6    0.62    0.29
   0   2  -6    0.49    0.25
  -1  -2  -6   62.61    3.42
  -1  -2  -6   64.63    3.44
  -1   2  -6   61.74    3.47
  -1   2  -6   60.90    3.41
  -2  -2  -6  110.39    5.77
  -2  -2  -6  107.04    5.83
  -2   2  -6  105.18    5.85
  -2   2  -6  107.30    5.72
  -3  -2  -6   27.98    1.82
  -3   2  -6   26.59    1.79
  -4  -2  -6    6.25    0.93
  -4   2  -6    6.01    0.88
  -5   3   6    0.64    0.79
  -4  -3   6    0.53    0.49
  -4   3   6    0.60    0.35
  -4   3   6    0.86    0.59
   3  -3  -6    0.84    0.46
   3   3  -6    0.25    0.41
  -3   3   6    1.31    0.30
  -3   3   6    1.45    0.50
  -2   3   6   27.30    1.69
   2   3  -6   27.06    1.76
   1  -3  -6    0.12    0.22
   1  -3  -6    0.29    0.10
  -1  -3   6    0.34    0.13
  -1   3   6    0.38    0.25
   1   3  -6    0.50    0.28
   1   3  -6    0.15    0.20
   0  -3  -6    0.23    0.22
   0  -3  -6    0.46    0.19
   0   3  -6    0.58    0.18
   0   3  -6    0.51    0.25
  -1  -3  -6   23.07    1.33
  -1  -3  -6   20.88    1.34
  -1   3  -6   21.49    1.39
  -1   3  -6   21.95    1.33
  -2  -3  -6    0.26    0.28
  -2  -3  -6    0.48    0.25
  -2   3  -6    0.09    0.32
  -3  -3  -6    7.69    0.84
  -3   3  -6    7.57    0.84
  -4  -3  -6    0.59    0.52
  -4   3  -6    0.43    0.50
  -5  -4   6    6.50    0.96
  -5   4   6    5.25    1.16
  -4  -4   6   17.86    1.43
  -4   4   6   17.11    1.46
   3  -4  -6    3.81    0.67
  -3   4   6    4.04    0.45
   3   4  -6    3.29    0.62
  -3   4   6    4.38    0.67
   2  -4  -6   48.52    2.92
   2   4  -6   52.43    2.95
  -2   4   6   49.77    2.89
   1  -4  -6   31.71    1.94
  -1  -4   6   33.77    1.74
  -1   4   6   32.00    1.92
   1   4  -6   30.23    1.95
   1   4  -6   33.36    1.94
   0  -4  -6   12.68    0.87
   0  -4  -6   11.22    0.75
   0   4  -6   13.02    0.96
   0   4  -6   11.90    0.87
  -1  -4  -6   96.47    5.11
  -1  -4  -6   93.72    5.06
  -1   4  -6   95.72    5.17
  -1   4  -6   91.90    5.08
  -2  -4  -6    2.58    0.45
  -2  -4  -6    3.03    0.41
  -2   4  -6    3.23    0.36
  -2   4  -6    2.38    0.48
  -3  -4  -6   21.13    1.34
  -3  -4  -6   20.37    1.47
  -3   4  -6   19.53    1.50
  -4  -4  -6   10.43    1.18
  -4   4  -6   10.80    1.19
  -5  -5   6    7.27    1.09
  -5   5   6    8.91    1.40
  -4  -5   6    0.36    0.45
  -4   5   6    0.64    0.61
   3  -5  -6   22.88    1.63
  -3   5   6   20.95    1.33
  -3   5   6   23.76    1.59
   2  -5  -6   11.00    0.95
  -2   5   6   11.68    0.70
  -2   5   6   12.72    0.97
   2   5  -6   12.47    1.00
  -1  -5   6    0.45    0.09
   1  -5  -6    0.23    0.24
  -1   5   6    0.52    0.30
   1   5  -6   -0.19    0.23
   1   5  -6    0.33    0.17
   0  -5  -6  148.98    8.20
   0  -5  -6  152.12    8.33
   0   5  -6  159.34    8.34
   0   5  -6  166.48    8.40
  -1  -5  -6    2.20    0.37
  -1  -5  -6    2.16    0.32
  -1   5  -6    2.76    0.46
  -1   5  -6    1.84    0.34
  -2  -5  -6   47.65    2.64
  -2   5  -6   46.68    2.54
  -2   5  -6   44.17    2.71
  -3  -5  -6    4.95    0.69
  -3  -5  -6    4.02    0.53
  -3   5  -6    3.81    0.68
  -4  -5  -6    3.99    0.76
  -4   5  -6    3.90    0.77
  -5  -6   6   -0.03    0.59
  -5   6   6    0.51    0.78
  -4  -6   6    0.28    0.46
  -4   6   6    0.80    0.57
   3  -6  -6   47.77    2.94
  -3  -6   6   48.13    2.97
  -3   6   6   48.68    2.93
   2  -6  -6   25.55    1.65
   2   6  -6   24.98    1.66
  -2   6   6   26.98    1.68
  -2   6   6   25.03    1.38
   1  -6  -6  126.99    7.19
  -1   6   6  132.32    7.21
   1   6  -6  135.24    7.22
   1   6  -6  141.17    7.22
   0  -6  -6    1.30    0.20
   0  -6  -6    1.03    0.30
   0   6  -6    0.92    0.30
   0   6  -6    1.38    0.37
  -1  -6  -6    0.21    0.20
  -1  -6  -6    1.17    0.32
  -1   6  -6    0.18    0.23
  -1   6  -6    0.17    0.32
  -2  -6  -6   49.34    3.25
  -2  -6  -6   62.57    3.29
  -2   6  -6   64.97    3.41
  -3  -6  -6   10.85    0.90
  -3  -6  -6   11.07    1.03
  -3   6  -6   10.92    1.03
  -4  -6  -6   14.29    1.25
  -4   6  -6   10.66    1.22
  -5  -7   6    2.35    0.77
  -5   7   6    3.37    0.98
  -4  -7   6   14.18    1.33
  -4   7   6   16.04    1.46
  -3  -7   6   15.52    1.32
   3  -7  -6   16.75    1.33
  -3   7   6   16.82    1.32
   2  -7  -6    6.94    0.75
   2   7  -6    5.20    0.66
  -2   7   6    7.70    0.73
  -2   7   6    5.48    0.38
   1  -7  -6    5.81    0.64
   1   7  -6    5.49    0.65
   1   7  -6    7.82    0.67
  -1   7   6    6.49    0.73
   0  -7  -6   55.70    3.14
   0  -7  -6   55.13    2.98
   0   7  -6   58.34    3.21
   0   7  -6   54.11    3.13
  -1  -7  -6   91.81    4.92
  -1  -7  -6   88.48    4.83
  -1   7  -6   86.22    5.00
  -1   7  -6   93.50    4.88
  -2  -7  -6   31.50    1.92
  -2  -7  -6   32.24    1.91
  -2   7  -6   30.69    1.99
  -3  -7  -6    1.90    0.51
  -3  -7  -6    2.07    0.46
  -3   7  -6    2.45    0.63
  -4  -7  -6    0.75    0.54
  -4   7  -6    1.33    0.67
  -5  -8   6    5.27    1.05
  -5   8   6    4.67    1.04
  -4  -8   6   16.49    1.41
  -4   8   6   15.11    1.48
  -3  -8   6   23.89    1.80
   3  -8  -6   26.06    1.78
  -3   8   6   25.31    1.80
  -2  -8   6  239.42   13.21
   2  -8  -6  244.32   13.16
  -2   8   6  257.60   13.20
   1  -8  -6   34.74    2.05
   1   8  -6   32.14    2.06
   1   8  -6   36.19    2.09
  -1   8   6   33.21    2.09
   0  -8  -6   71.71    3.89
   0  -8  -6   73.35    4.07
   0   8  -6   70.48    4.05
   0   8  -6   79.27    4.14
  -1  -8  -6   88.54    4.74
  -1  -8  -6   91.19    4.85
  -1   8  -6   88.16    4.78
  -1   8  -6   84.97    4.92
  -2  -8  -6   37.15    2.15
  -2  -8  -6   35.10    2.14
  -2   8  -6   35.33    2.24
  -3  -8  -6   74.88    4.05
  -3  -8  -6   70.90    4.12
  -3   8  -6   68.75    4.14
  -4  -8  -6    0.80    0.58
  -4   8  -6    1.17    0.66
  -5   9   6    0.54    0.72
  -4  -9   6    8.57    1.05
  -4   9   6    9.20    1.18
   3  -9  -6   11.84    1.18
  -3  -9   6   10.17    1.13
  -3   9   6   12.31    1.12
   2  -9  -6   49.61    3.07
  -2  -9   6   54.92    3.18
  -2   9   6   53.95    3.15
   1  -9  -6    7.78    0.78
  -1  -9   6    8.17    0.88
   1   9  -6    8.64    0.76
  -1   9   6    7.17    0.84
   0  -9  -6    2.26    0.40
   0   9  -6    2.59    0.49
  -1  -9  -6  112.55    6.14
  -1  -9  -6  117.22    6.25
   1  -9   6  113.62    6.22
  -1   9  -6  119.69    6.36
  -1   9  -6  113.87    6.18
  -2  -9  -6    1.57    0.41
  -2  -9  -6    2.04    0.44
  -2   9  -6    1.44    0.48
  -3  -9  -6   25.92    1.63
  -3  -9  -6   23.43    1.70
  -3   9  -6   22.44    1.72
  -4  -9  -6    2.95    0.77
  -4   9  -6    3.36    0.78
  -5 -10   6    2.80    0.75
  -5  10   6    3.67    0.96
  -4 -10   6   11.66    1.24
  -4  10   6    9.82    1.25
   3 -10  -6    7.49    0.92
  -3 -10   6    7.88    0.95
  -3  10   6    6.89    0.97
  -2 -10   6  158.53    8.53
   2 -10  -6  152.62    8.45
  -2  10   6  157.67    8.52
  -1 -10   6   16.67    1.32
   1 -10  -6   18.67    1.27
  -1  10   6   19.19    1.37
   1  10  -6   19.26    1.31
   0 -10  -6    7.30    0.51
   0 -10   6    8.89    0.81
   0 -10  -6    8.10    0.76
   0  10  -6    8.50    0.85
   1 -10   6  115.60    6.27
  -1 -10  -6  113.44    6.18
  -1 -10  -6  112.20    6.28
  -1  10  -6  123.36    6.40
  -1  10  -6  115.68    6.22
  -2 -10  -6   25.12    1.54
  -2 -10  -6   24.54    1.57
  -2  10  -6   22.10    1.59
  -2  10  -6   21.84    1.67
  -3 -10  -6   55.32    3.17
  -3 -10  -6   57.95    3.24
  -3  10  -6   50.75    3.26
  -3  10  -6   50.82    3.29
  -4 -10  -6   -0.17    0.51
  -4  10  -6    0.07    0.53
  -4 -11   6   -0.40    0.53
  -4  11   6    0.34    0.66
   3 -11  -6    0.85    0.45
  -3 -11   6    0.78    0.49
  -3  11   6    0.73    0.53
   2 -11  -6   38.05    2.38
  -2 -11   6   39.33    2.46
  -2  11   6   38.32    2.47
   1 -11  -6    8.43    0.77
  -1 -11   6    7.71    0.86
  -1  11   6    7.19    0.92
   1  11  -6    9.05    0.90
   0 -11  -6   10.90    0.90
   0 -11   6    9.52    0.89
   0 -11  -6    9.50    0.63
   0  11  -6   11.23    0.94
   1 -11   6    0.32    0.30
  -1 -11  -6    0.18    0.29
  -1 -11  -6    0.19    0.23
  -1  11  -6   -0.15    0.38
  -1  11  -6    0.34    0.30
  -2 -11  -6    0.66    0.36
  -2 -11  -6    0.44    0.38
  -2  11  -6    0.57    0.42
  -2  11  -6    0.58    0.49
  -3 -11  -6    3.42    0.60
  -3  11  -6    2.82    0.69
  -3  11  -6    3.58    0.78
  -4 -11  -6    0.55    0.64
  -4  11  -6   -0.15    0.52
  -4  11  -6   -0.45    0.64
  -4 -12   6   -0.17    0.55
  -4  12   6    0.46    0.69
   3 -12  -6   19.33    1.47
  -3 -12   6   17.77    1.52
  -3  12   6   18.45    1.53
   2 -12  -6    0.43    0.35
  -2 -12   6    0.39    0.48
  -2  12   6    1.06    0.62
  -1 -12   6    8.80    0.99
   1 -12  -6   11.76    0.93
  -1  12   6   10.95    1.16
   1  12  -6    9.81    0.90
   0 -12  -6   25.06    1.69
   0 -12   6   26.27    1.72
   0  12  -6   27.43    1.73
  -1 -12  -6    5.16    0.52
   1 -12   6    6.19    0.68
  -1 -12  -6    4.54    0.62
  -1  12  -6    5.76    0.64
  -1  12  -6    4.50    0.65
  -2 -12  -6   32.47    2.10
  -2 -12  -6   36.62    2.09
  -2  12  -6   32.54    2.12
  -2  12  -6   33.25    2.24
  -3 -12  -6    0.26    0.44
  -3 -12  -6    0.58    0.44
  -3  12  -6    0.06    0.52
  -3  12  -6    0.96    0.59
  -4 -12  -6    0.39    0.62
  -4  12  -6   -0.14    0.70
  -4  12  -6   -0.11    0.59
  -4 -13   6   11.79    1.30
  -4  13   6   10.97    1.42
  -3 -13   6    0.27    0.49
   3 -13  -6   -0.28    0.42
  -3  13   6   -0.06    0.50
   2 -13  -6   -0.14    0.36
  -2 -13   6    0.24    0.43
  -2  13   6    0.29    0.51
  -1 -13   6   69.87    4.03
   1 -13  -6   69.01    3.95
  -1  13   6   64.98    4.05
   1  13  -6   73.32    3.98
   0 -13   6   30.44    1.97
   0 -13  -6   29.45    1.93
   0  13  -6   31.36    1.96
  -1 -13  -6   49.63    2.78
  -1 -13  -6   45.91    2.91
   1 -13   6   49.48    2.90
  -1  13  -6   54.38    2.99
  -2 -13  -6    1.86    0.46
  -2 -13  -6    1.25    0.48
  -2  13  -6    1.14    0.54
  -2  13  -6    1.73    0.52
  -3 -13  -6    4.27    0.71
  -3 -13  -6    4.25    0.71
  -3  13  -6    3.09    0.76
  -3  13  -6    2.43    0.77
  -4 -13  -6    6.26    0.97
  -4  13  -6    5.69    1.11
  -4  13  -6    5.30    0.97
  -4 -14   6    1.52    0.73
  -4  14   6    3.11    0.89
  -3 -14   6    2.13    0.69
   3 -14  -6    1.09    0.54
  -3  14   6    0.96    0.62
  -2 -14   6   27.18    1.85
   2 -14  -6   25.16    1.76
  -2  14   6   24.74    1.88
  -1 -14   6    2.89    0.64
   1 -14  -6    2.04    0.52
   1  14  -6    4.38    0.62
  -1  14   6    4.02    0.82
   0 -14   6   47.67    2.87
   0 -14  -6   47.04    2.83
   0  14  -6   47.20    2.85
   1 -14   6    1.03    0.42
  -1 -14  -6    0.92    0.46
  -1 -14  -6   -0.02    0.26
  -1  14  -6    0.74    0.44
  -2 -14  -6    5.08    0.66
  -2 -14  -6    4.59    0.73
  -2  14  -6    6.24    1.12
  -2  14  -6    5.41    0.81
  -3 -14  -6   13.08    1.22
  -3 -14  -6   15.14    1.26
  -3  14  -6   14.57    1.36
  -3  14  -6   13.83    1.41
  -4 -14  -6    0.23    0.68
  -4  14  -6    1.27    0.71
  -4  14  -6    1.05    0.87
  -4 -15   6   17.38    1.72
  -4  15   6   15.99    1.69
  -3 -15   6    3.63    0.81
  -3  15   6    4.85    0.92
  -2 -15   6    0.27    0.48
   2 -15  -6    0.36    0.42
  -2  15   6    1.58    0.68
  -1 -15   6   35.42    2.35
   1 -15  -6   38.58    2.32
   1  15  -6   36.65    2.29
  -1  15   6   34.20    2.42
   0 -15   6   29.02    1.92
   0 -15  -6   27.90    1.89
   0  15  -6   29.21    1.91
  -1 -15  -6   81.20    4.73
   1 -15   6   79.44    4.67
  -1 -15  -6   86.79    4.67
  -1  15  -6   86.84    4.74
  -2 -15  -6    4.91    0.73
  -2 -15  -6    3.75    0.61
  -2  15  -6    3.61    0.76
  -3 -15  -6    1.30    0.59
  -3 -15  -6    0.90    0.60
  -3  15  -6    1.04    0.61
  -4 -16   6    0.17    0.60
  -4  16   6    1.05    0.81
  -3 -16   6    6.91    1.03
  -3  16   6    6.21    1.04
   2 -16  -6   16.30    1.35
  -2 -16   6   15.83    1.48
  -2  16   6   18.24    1.53
   1 -16  -6   19.64    1.50
  -1 -16   6   23.43    1.67
   1  16  -6   22.48    1.57
  -1  16   6   19.23    1.72
   0 -16   6    5.28    0.79
   0 -16  -6    5.03    0.73
   0  16  -6    5.68    0.83
  -1 -16  -6    1.53    0.50
   1 -16   6    1.33    0.47
  -1  16  -6    2.28    0.56
  -2 -16  -6   19.73    1.51
  -2 -16  -6   17.53    1.34
  -2  16  -6   18.07    1.48
  -3 -16  -6    7.22    0.95
  -3 -16  -6    6.89    0.93
  -3  16  -6    4.64    0.87
  -4 -17   6    2.91    0.85
  -4  17   6    2.15    0.85
  -3 -17   6    7.30    1.11
  -3  17   6    6.66    1.13
  -2 -17   6   -0.68    0.40
   2 -17  -6    0.63    0.47
  -2  17   6   -0.06    0.60
  -1 -17   6    1.88    0.62
   1 -17  -6    1.87    0.56
   1  17  -6    2.84    0.62
  -1  17   6    2.45    0.76
   0 -17   6   39.93    2.52
   0 -17  -6   37.76    2.47
   0  17  -6   39.52    2.48
  -1 -17  -6   11.58    1.11
   1 -17   6   10.95    1.04
  -1  17  -6   13.75    1.17
  -2 -17  -6    7.31    0.86
  -2 -17  -6    6.97    0.98
  -2  17  -6    8.53    1.00
  -3 -17  -6    0.70    0.60
  -3 -17  -6    0.91    0.61
  -3  17  -6    0.83    0.60
  -3 -18   6    9.43    1.25
  -3  18   6    8.13    1.32
  -2 -18   6    2.11    0.67
   2 -18  -6    1.64    0.55
  -2  18   6    1.93    0.78
   1 -18  -6   28.35    2.01
  -1 -18   6   30.71    2.13
  -1  18   6   30.65    2.25
   1  18  -6   28.25    1.97
   0 -18   6    5.98    0.87
   0 -18  -6    4.88    0.81
   0  18  -6    4.59    0.76
  -1 -18  -6    1.00    0.53
   1 -18   6    0.86    0.51
  -1  18  -6    1.43    0.57
  -2 -18  -6   21.60    1.72
  -2  18  -6   21.50    1.65
  -3 -18  -6    0.89    0.66
  -3 -18  -6    0.10    0.56
  -3  18  -6    1.09    0.60
  -3 -19   6    3.60    0.88
  -3  19   6    3.30    0.90
   2 -19  -6    1.05    0.57
  -2 -19   6    1.49    0.64
  -2  19   6    1.97    0.92
  -1 -19   6    7.32    0.98
   1 -19  -6    6.54    0.93
  -1  19   6    6.32    1.09
   0 -19   6    1.05    0.56
   0 -19  -6    0.41    0.52
   0  19  -6    0.68    0.55
  -1 -19  -6    1.77    0.62
  -1  19  -6    1.93    0.58
  -2 -19  -6    1.88    0.68
  -2  19  -6    1.25    0.55
  -3 -19  -6    2.93    0.75
  -3  19  -6    2.09    0.66
  -3 -20   6    1.58    0.74
  -3  20   6    0.93    0.76
   2 -20  -6    1.35    0.59
  -2 -20   6   -0.19    0.63
  -2  20   6    1.20    0.81
   1 -20  -6   -0.62    0.49
  -1 -20   6   -0.03    0.58
  -1  20   6    0.90    0.77
   0 -20   6    3.33    0.74
   0 -20  -6    3.71    0.81
   0  20  -6    2.57    0.67
  -1 -20  -6    6.20    0.94
  -1  20  -6    6.94    0.90
  -2 -20  -6    4.83    0.87
  -2  20  -6    4.98    0.80
  -2 -21   6    3.45    0.89
   2 -21  -6    3.20    0.74
  -2  21   6    2.17    0.89
  -1 -21   6    8.96    1.18
   1 -21  -6   11.32    1.31
  -1  21   6   11.49    1.44
   0 -21   6   10.47    1.26
   0 -21  -6   11.34    1.33
   0  21  -6   14.15    1.30
  -1 -21  -6    6.54    1.05
  -1  21  -6    6.89    0.94
  -2 -21  -6    2.84    0.82
  -2  21  -6    2.30    0.69
  -2 -22   6   -0.26    0.64
   2 -22  -6    0.53    0.59
  -2  22   6    1.09    0.88
   1 -22  -6    6.96    1.10
  -1 -22   6    4.78    0.98
  -1  22   6    7.82    1.24
   0 -22   6    1.36    0.70
   0 -22  -6    1.11    0.65
   0  22  -6    1.27    0.66
  -1 -22  -6    7.87    1.12
  -1  22  -6    9.39    1.12
  -2 -22  -6    0.64    0.73
  -2  22  -6   -0.17    0.53
  -2 -23   6    2.30    0.87
   2 -23  -6    3.27    0.84
  -2  23   6    2.78    1.04
  -1 -23   6    5.42    1.08
   1 -23  -6    6.39    1.06
   0 -23   6   26.34    2.12
   0 -23  -6   31.14    2.23
   0  23  -6   24.73    1.90
  -1 -23  -6    7.47    1.15
  -1  23  -6    9.35    1.14
  -1 -24   6    3.47    0.97
   1 -24  -6    5.31    1.07
   0 -24  -6    2.32    0.91
   0 -24   6    2.78    0.82
   0  24  -6    1.16    0.67
  -5   0   7    0.87    0.77
   4   0  -7    0.55    0.47
  -4   0   7   -0.35    0.44
  -4   0   7   -0.13    0.33
   3   0  -7    0.52    0.46
  -3   0   7    0.36    0.38
  -2   0   7    0.33    0.26
   2   0  -7    0.62    0.38
   1   0  -7    0.08    0.29
  -1   0   7    0.23    0.19
   1   0  -7    0.16    0.20
   0   0  -7   -0.19    0.25
   0   0  -7    0.03    0.25
  -1   0  -7   -0.04    0.21
  -1   0  -7   -0.19    0.19
  -2   0  -7    0.32    0.32
  -2   0  -7    0.34    0.24
  -3   0  -7    0.25    0.40
  -4   0  -7    0.50    0.57
  -5  -1   7    1.70    0.81
  -5   1   7    1.19    0.78
  -4  -1   7    0.40    0.38
  -4  -1   7    0.33    0.48
   4  -1  -7    0.34    0.49
  -4   1   7    0.16    0.48
  -4   1   7    0.43    0.34
   4   1  -7    0.51    0.48
  -3  -1   7    6.16    0.73
   3  -1  -7    5.33    0.81
  -3   1   7    5.30    0.73
   3   1  -7    6.53    0.83
   2  -1  -7    3.19    0.56
  -2  -1   7    2.51    0.39
   2   1  -7    1.95    0.46
  -2   1   7    3.13    0.44
   1  -1  -7   16.64    1.05
  -1  -1   7   16.61    0.99
   1  -1  -7   16.94    1.16
  -1   1   7   16.93    1.04
   1   1  -7   17.06    1.11
   1   1  -7   15.93    1.16
   0  -1  -7    0.54    0.28
   0  -1  -7    1.01    0.31
   0   1  -7    0.60    0.28
   0   1  -7    0.46    0.29
  -1  -1  -7   -0.02    0.23
  -1  -1  -7    0.50    0.27
  -1   1  -7    0.29    0.21
  -1   1  -7    0.40    0.21
  -2  -1  -7    8.08    0.80
  -2  -1  -7    8.93    0.71
  -2   1  -7    8.25    0.83
  -2   1  -7    7.77    0.67
  -3  -1  -7    0.62    0.48
  -3   1  -7    0.82    0.44
  -4  -1  -7    0.53    0.54
  -4   1  -7    0.56    0.59
  -5  -2   7   20.70    1.77
  -5  -2   7   24.52    2.06
  -5   2   7   29.19    2.14
   4  -2  -7    2.16    0.63
   4   2  -7    2.56    0.63
  -4   2   7    1.40    0.60
  -3  -2   7   93.62    5.19
   3  -2  -7   93.62    5.34
  -3   2   7   96.50    5.25
   3   2  -7   92.21    5.31
  -2  -2   7   47.46    2.57
   2  -2  -7   44.77    2.73
   2   2  -7   46.18    2.74
  -2   2   7   43.77    2.60
   1  -2  -7    0.46    0.32
  -1  -2   7    1.04    0.20
   1  -2  -7    1.45    0.24
   1   2  -7    0.89    0.29
   1   2  -7    1.04    0.34
  -1   2   7    1.05    0.28
   0  -2  -7  457.19   22.85
   0  -2  -7  399.52   22.76
   0   2  -7  461.85   22.85
   0   2  -7  426.09   22.85
  -1  -2  -7   17.98    1.19
  -1  -2  -7   19.17    1.17
  -1   2  -7   17.19    1.22
  -1   2  -7   18.13    1.18
  -2  -2  -7  131.92    7.07
  -2  -2  -7  132.48    7.01
  -2   2  -7  125.95    7.09
  -2   2  -7  133.03    6.98
  -3  -2  -7   26.32    1.80
  -3   2  -7   27.07    1.85
  -4  -2  -7    1.11    0.57
  -4   2  -7    0.90    0.64
  -5  -3   7    0.43    0.54
  -5   3   7    0.18    0.74
   4  -3  -7    0.08    0.50
  -4   3   7    1.35    0.62
   3  -3  -7   28.89    1.95
  -3   3   7   27.50    1.63
  -3   3   7   26.44    1.81
  -2  -3   7   13.03    0.86
   2  -3  -7   12.28    1.01
  -2   3   7   11.73    0.92
   2   3  -7   13.47    1.06
   1  -3  -7   54.32    2.96
  -1  -3   7   48.60    2.72
   1  -3  -7   54.27    2.76
   1   3  -7   47.92    2.91
  -1   3   7   52.38    2.87
   1   3  -7   50.18    2.97
   0  -3  -7    1.01    0.35
   0  -3  -7    0.90    0.25
   0   3  -7    0.38    0.29
   0   3  -7    1.08    0.34
  -1  -3  -7    0.60    0.28
  -1  -3  -7    0.54    0.26
  -1   3  -7    0.97    0.29
  -1   3  -7    0.49    0.34
  -2  -3  -7   21.50    1.34
  -2  -3  -7   19.31    1.35
  -2   3  -7   21.84    1.46
  -2   3  -7   20.50    1.29
  -3  -3  -7    6.90    0.81
  -3   3  -7    7.30    0.85
  -4  -3  -7    4.08    0.81
  -4   3  -7    5.29    0.87
  -5  -4   7   19.68    1.67
  -5   4   7   20.52    1.86
  -4  -4   7   37.85    2.41
   4  -4  -7   33.54    2.42
  -4   4   7   35.35    2.39
   3  -4  -7   77.36    4.38
  -3   4   7   76.63    4.07
   3   4  -7   69.24    4.30
  -3   4   7   76.53    4.29
   2  -4  -7   11.63    0.96
  -2  -4   7   10.00    0.74
  -2   4   7   11.14    0.87
   2   4  -7    9.75    1.00
   1  -4  -7   79.76    4.25
   1  -4  -7   84.29    4.48
   1   4  -7   81.00    4.49
   1   4  -7   77.09    4.46
  -1   4   7   81.51    4.41
   0  -4  -7  452.03   22.60
   0  -4  -7  402.10   22.46
   0   4  -7  439.61   22.60
  -1  -4  -7  148.90    7.73
  -1  -4  -7  147.43    7.78
  -1   4  -7  144.68    7.77
  -1   4  -7  140.29    7.83
  -2  -4  -7   66.29    3.68
  -2   4  -7   66.73    3.62
  -2   4  -7   65.16    3.76
  -3  -4  -7    4.43    0.67
  -3   4  -7    5.07    0.74
  -4  -4  -7    4.13    0.85
  -4   4  -7    5.05    0.86
  -5  -5   7    1.11    0.62
  -5   5   7   -0.15    0.70
  -4  -5   7    1.13    0.62
  -4   5   7    1.67    0.60
   3  -5  -7    0.68    0.46
   3   5  -7    0.89    0.45
  -3   5   7    0.83    0.47
  -2  -5   7   18.57    1.10
  -2   5   7   16.78    1.00
  -2   5   7   18.97    1.26
   2   5  -7   17.01    1.29
   1  -5  -7    1.44    0.36
   1   5  -7    0.41    0.31
   1   5  -7    1.53    0.39
  -1   5   7    2.03    0.41
   0  -5  -7    2.99    0.47
   0  -5  -7    3.08    0.34
   0   5  -7    2.84    0.45
   0   5  -7    3.56    0.52
  -1  -5  -7   16.84    1.10
  -1  -5  -7   17.25    1.17
  -1   5  -7   17.33    1.14
  -1   5  -7   17.59    1.25
  -2  -5  -7    3.90    0.51
  -2  -5  -7    3.23    0.48
  -2   5  -7    2.71    0.39
  -2   5  -7    3.53    0.58
  -3  -5  -7    3.64    0.63
  -3   5  -7    3.62    0.66
  -4  -5  -7   -0.02    0.50
  -4   5  -7    0.96    0.60
  -5  -6   7    3.43    0.88
  -5   6   7    3.99    1.03
  -4  -6   7   50.88    3.26
  -4   6   7   53.03    3.25
   3  -6  -7    5.52    0.82
   3   6  -7    5.10    0.78
  -3   6   7    4.90    0.78
   2   6  -7   25.07    1.68
  -2   6   7   24.81    1.64
   1  -6  -7  191.45   10.01
   1   6  -7  176.65   10.00
  -1   6   7  182.67    9.96
   1   6  -7  197.78   10.03
   0  -6  -7   82.62    4.59
   0  -6  -7   87.61    4.75
   0   6  -7   85.10    4.74
   0   6  -7   90.86    4.79
  -1  -6  -7  280.37   14.57
  -1  -6  -7  273.86   14.48
  -1   6  -7  282.86   14.53
  -1   6  -7  266.14   14.63
  -2  -6  -7    1.10    0.38
  -2  -6  -7    1.44    0.38
  -2   6  -7    1.11    0.45
  -3  -6  -7    3.72    0.55
  -3  -6  -7    2.86    0.63
  -3   6  -7    2.58    0.62
  -4  -6  -7   28.14    2.01
  -4   6  -7   27.31    2.07
  -5   7   7    1.53    0.82
  -4  -7   7    0.92    0.55
  -4   7   7    1.37    0.69
  -3  -7   7    7.37    0.98
   3  -7  -7    9.88    1.07
  -3   7   7    8.95    0.92
   2  -7  -7    0.10    0.16
   2   7  -7    0.65    0.40
  -2   7   7    0.61    0.43
   1  -7  -7    4.88    0.61
   1   7  -7    4.80    0.65
  -1   7   7    4.97    0.63
   1   7  -7    4.01    0.59
   0  -7  -7    0.59    0.18
   0  -7  -7    0.88    0.31
   0   7  -7    0.75    0.33
   0   7  -7    0.44    0.33
  -1  -7  -7    2.62    0.44
  -1  -7  -7    1.47    0.33
  -1   7  -7    4.67    0.52
  -1   7  -7    1.64    0.49
  -2  -7  -7    4.65    0.59
  -2  -7  -7    3.95    0.55
  -2   7  -7    5.09    0.73
  -3  -7  -7    0.35    0.41
  -3  -7  -7    0.08    0.34
  -3   7  -7   -0.05    0.44
  -4  -7  -7    0.40    0.60
  -4   7  -7    2.09    0.68
  -5  -8   7    0.53    0.57
  -5   8   7    0.49    0.68
  -4  -8   7   21.28    1.75
  -4   8   7   21.96    1.77
  -3  -8   7   -0.57    0.47
   3  -8  -7    0.32    0.43
  -3   8   7    0.53    0.50
   2   8  -7   24.27    1.72
  -2   8   7   27.01    1.74
   1  -8  -7   56.97    3.10
   1   8  -7   49.83    3.08
  -1   8   7   53.78    3.09
   1   8  -7   51.16    3.07
   0  -8  -7    1.18    0.35
   0  -8  -7    1.19    0.21
   0   8  -7    0.74    0.35
   0   8  -7    0.87    0.37
  -1  -8  -7   48.58    2.84
  -1  -8  -7   49.66    2.74
  -1   8  -7   48.09    2.94
  -1   8  -7   48.34    2.75
  -1   8  -7   51.67    2.82
  -2  -8  -7    7.34    0.74
  -2  -8  -7    6.54    0.74
  -2   8  -7    6.58    0.82
  -3  -8  -7    2.72    0.54
  -3  -8  -7    3.47    0.66
  -3   8  -7    3.03    0.67
  -4  -8  -7   11.72    1.29
  -4   8  -7   11.07    1.31
  -5   9   7    0.21    0.72
  -4  -9   7    5.11    0.91
  -4   9   7    5.76    0.99
  -3  -9   7   14.09    1.26
   3  -9  -7   13.58    1.23
  -3   9   7   12.10    1.20
  -2  -9   7   47.02    2.76
   2  -9  -7   37.98    2.59
  -2   9   7   45.00    2.68
   1  -9  -7   40.86    2.31
  -1   9   7   34.87    2.31
   1   9  -7   39.74    2.31
   1   9  -7   35.02    2.31
   0  -9  -7   15.68    0.89
   0  -9  -7   13.35    1.08
   0   9  -7   13.67    1.09
   0   9  -7   16.94    1.17
  -1  -9  -7    8.22    0.76
  -1  -9  -7    7.93    0.65
  -1   9  -7    8.14    0.66
  -1   9  -7    8.33    0.89
  -2  -9  -7    5.86    0.71
  -2  -9  -7    5.50    0.65
  -2   9  -7    4.91    0.75
  -3  -9  -7   18.46    1.30
  -3  -9  -7   13.02    1.25
  -3   9  -7   19.90    1.46
  -4  -9  -7    2.82    0.73
  -4   9  -7    3.26    0.81
  -4 -10   7    8.16    1.11
  -4  10   7   10.63    1.29
   3 -10  -7    1.10    0.53
  -3 -10   7    0.53    0.52
  -3  10   7    0.59    0.58
   2 -10  -7    2.87    0.57
  -2 -10   7    2.86    0.64
  -2  10   7    2.90    0.67
   1 -10  -7   45.37    2.65
  -1 -10   7   48.35    2.75
  -1  10   7   40.61    2.69
   1  10  -7   43.78    2.68
   0 -10  -7    9.09    0.66
   0 -10  -7    9.94    0.87
   0 -10   7    9.21    0.86
   0  10  -7   10.08    0.97
  -1 -10  -7   45.31    2.75
  -1 -10  -7   45.59    2.62
   1 -10   7   47.68    2.74
  -1  10  -7   49.56    2.85
  -2 -10  -7    0.34    0.41
  -2 -10  -7    0.54    0.34
  -2  10  -7    0.73    0.43
  -2  10  -7    1.13    0.59
  -3 -10  -7    8.22    0.90
  -3  10  -7    7.17    0.97
  -4 -10  -7    5.20    0.94
  -4  10  -7    4.10    0.92
  -4 -11   7    2.21    0.73
  -4  11   7    3.28    0.84
  -3 -11   7    9.86    1.13
   3 -11  -7    8.74    1.07
  -3  11   7   10.07    1.19
   2 -11  -7   70.32    4.10
  -2 -11   7   72.95    4.20
  -2  11   7   70.02    4.15
  -1 -11   7   13.09    1.21
   1 -11  -7   16.09    1.18
   1  11  -7   14.83    1.20
  -1  11   7   17.15    1.33
   0 -11   7    9.97    0.90
   0 -11  -7    9.28    0.85
   0  11  -7    9.46    0.89
   1 -11   7   11.89    1.02
  -1 -11  -7   12.63    0.90
  -1 -11  -7   12.84    1.04
  -1  11  -7   15.21    1.15
  -2 -11  -7   17.43    1.27
  -2 -11  -7   18.76    1.37
  -2  11  -7   18.16    1.36
  -2  11  -7   19.05    1.52
  -3 -11  -7   24.35    1.70
  -3 -11  -7   25.36    1.70
  -3  11  -7   21.57    1.75
  -3  11  -7   21.64    1.74
  -4 -11  -7    4.73    0.93
  -4  11  -7    3.59    0.91
  -4  11  -7    4.22    1.09
  -4 -12   7   31.20    2.29
  -4  12   7   29.93    2.24
  -3 -12   7    1.20    0.62
   3 -12  -7    1.45    0.55
  -3  12   7    1.75    0.71
  -2 -12   7    4.84    0.80
   2 -12  -7    5.38    0.74
  -2  12   7    5.36    0.84
   1 -12  -7  101.09    5.35
  -1 -12   7   98.63    5.43
  -1  12   7   92.20    5.41
   1  12  -7   91.78    5.36
   0 -12   7   20.62    1.56
   0 -12  -7   23.98    1.56
   0  12  -7   22.59    1.58
   1 -12   7  150.47    8.50
  -1 -12  -7  150.97    8.37
  -1 -12  -7  158.91    8.56
  -1  12  -7  173.83    8.62
  -2 -12  -7    0.77    0.44
  -2 -12  -7    0.31    0.36
  -2  12  -7   -0.37    0.51
  -3 -12  -7    4.16    0.73
  -3 -12  -7    4.05    0.72
  -3  12  -7    2.20    0.68
  -4 -12  -7   14.80    1.48
  -4  12  -7    9.44    1.27
  -4 -13   7    0.34    0.66
  -4  13   7    0.60    0.67
  -3 -13   7    4.42    0.88
   3 -13  -7    3.77    0.76
  -3  13   7    3.83    0.83
   2 -13  -7   14.11    1.20
  -2 -13   7   13.60    1.26
  -2  13   7   13.94    1.33
  -1 -13   7   16.85    1.37
   1 -13  -7   18.62    1.32
   1  13  -7   15.91    1.31
  -1  13   7   16.85    1.45
   0 -13  -7    2.83    0.57
   0 -13   7    3.15    0.62
   0  13  -7    3.65    0.62
  -1 -13  -7    2.13    0.52
   1 -13   7    2.76    0.54
  -1 -13  -7    2.28    0.40
  -1  13  -7    2.68    0.59
  -2 -13  -7   10.83    0.94
  -2 -13  -7   10.95    1.00
  -2  13  -7   10.41    1.17
  -3 -13  -7    3.15    0.70
  -3 -13  -7    3.15    0.69
  -3  13  -7    2.30    0.70
  -4 -14   7    9.42    1.26
  -4  14   7    9.78    1.34
  -3 -14   7    7.31    1.06
   3 -14  -7    8.87    1.09
  -3  14   7    8.34    1.14
   2 -14  -7    0.57    0.45
  -2 -14   7    0.47    0.51
  -2  14   7    0.56    0.60
   1 -14  -7   19.84    1.41
  -1 -14   7   17.45    1.41
   1  14  -7   14.98    1.33
  -1  14   7   18.18    1.46
   0 -14  -7   79.23    4.48
   0 -14   7   72.80    4.48
   0  14  -7   83.56    4.50
   1 -14   7   21.76    1.62
  -1 -14  -7   24.74    1.72
  -1  14  -7   26.75    1.74
  -2 -14  -7    3.52    0.58
  -2 -14  -7    3.37    0.65
  -2  14  -7    3.77    0.77
  -3 -14  -7    4.29    0.78
  -3 -14  -7    3.47    0.73
  -3  14  -7    2.53    0.79
  -4 -15   7    2.35    0.79
  -4  15   7    2.57    0.91
  -3 -15   7   -0.29    0.61
   3 -15  -7    1.39    0.63
  -3  15   7    0.27    0.72
  -2 -15   7    8.94    1.12
   2 -15  -7   10.39    1.11
  -2  15   7   10.89    1.27
   1 -15  -7    0.28    0.43
  -1 -15   7   -0.02    0.49
  -1  15   7   -0.06    0.52
   1  15  -7   -0.08    0.39
   0 -15   7   14.74    1.25
   0 -15  -7   13.40    1.22
   0  15  -7   13.58    1.19
  -1 -15  -7    0.21    0.41
   1 -15   7   -0.17    0.37
  -1  15  -7    0.68    0.46
  -2 -15  -7    0.52    0.41
  -2 -15  -7    0.23    0.47
  -2  15  -7    1.44    0.61
  -3 -15  -7    4.43    0.80
  -3 -15  -7    3.37    0.73
  -3  15  -7    3.21    0.85
  -4 -16   7    0.18    0.65
  -4  16   7   -0.50    0.66
  -3 -16   7   13.91    1.54
  -3  16   7   14.21    1.46
   2 -16  -7    2.23    0.63
  -2 -16   7    2.54    0.69
  -2  16   7    2.41    0.73
   1 -16  -7    0.15    0.43
  -1 -16   7   -0.25    0.43
  -1  16   7    0.81    0.61
   1  16  -7   -0.32    0.38
   0 -16  -7   28.53    1.98
   0 -16   7   26.76    1.94
   0  16  -7   30.29    1.99
  -1 -16  -7    1.11    0.50
   1 -16   7    1.34    0.51
  -1  16  -7    1.31    0.58
  -2 -16  -7    2.21    0.62
  -2  16  -7    2.52    0.62
  -3 -16  -7   11.22    1.17
  -3 -16  -7    9.84    1.18
  -3  16  -7    8.89    1.20
  -3 -17   7    7.03    1.10
  -3  17   7    8.00    1.24
   2 -17  -7   17.87    1.48
  -2 -17   7   18.20    1.57
  -2  17   7   16.94    1.56
  -1 -17   7   19.50    1.62
   1 -17  -7   20.38    1.55
  -1  17   7   19.28    1.66
   1  17  -7   17.13    1.50
   0 -17   7    1.70    0.60
   0 -17  -7    2.57    0.66
   0  17  -7    1.84    0.60
  -1 -17  -7    0.41    0.52
  -1  17  -7    1.27    0.57
  -2 -17  -7    8.80    1.10
  -2  17  -7    8.64    1.00
  -3 -17  -7   10.69    1.21
  -3 -17  -7   10.34    1.16
  -3  17  -7    7.82    1.12
  -3 -18   7    1.42    0.70
  -3  18   7    1.07    0.76
  -2 -18   7   -0.02    0.58
   2 -18  -7   -0.07    0.43
  -2  18   7   -0.28    0.65
  -1 -18   7    3.90    0.81
   1 -18  -7    3.81    0.78
   1  18  -7    2.69    0.70
  -1  18   7    3.44    0.91
   0 -18   7    1.16    0.54
   0 -18  -7    0.25    0.48
   0  18  -7    0.31    0.51
  -1 -18  -7    2.77    0.67
  -1  18  -7    3.24    0.70
  -2 -18  -7    0.84    0.64
  -2  18  -7    2.01    0.67
  -3 -18  -7    2.13    0.77
  -3  18  -7    0.09    0.57
  -3 -19   7   14.43    1.58
  -3  19   7   13.41    1.62
   2 -19  -7   20.07    1.65
  -2 -19   7   21.98    1.77
  -2  19   7   18.13    1.75
  -1 -19   7   25.95    2.10
   1 -19  -7   30.88    2.13
   1  19  -7   26.79    2.00
  -1  19   7   30.36    2.16
   0 -19   7    0.56    0.57
   0 -19  -7    1.45    0.68
   0  19  -7    1.18    0.62
  -1 -19  -7    0.92    0.56
  -1  19  -7    1.26    0.55
  -2 -19  -7   19.08    1.69
  -2  19  -7   19.74    1.53
  -3 -20   7    2.66    0.83
  -3  20   7    1.37    0.80
  -2 -20   7    3.05    0.82
   2 -20  -7    3.15    0.79
  -2  20   7    3.10    0.94
  -1 -20   7   -0.47    0.56
   1 -20  -7    1.01    0.58
  -1  20   7   -0.13    0.73
   0 -20   7   16.97    1.54
   0 -20  -7   18.62    1.56
   0  20  -7   16.74    1.51
  -1 -20  -7    0.92    0.58
  -1  20  -7   -0.37    0.47
  -2 -20  -7    4.71    0.96
  -2  20  -7    5.20    0.87
  -2 -21   7    8.85    1.30
   2 -21  -7    5.46    0.97
  -2  21   7    5.41    1.10
   1 -21  -7    9.64    1.27
  -1 -21   7    8.37    1.20
  -1  21   7   14.80    1.63
   0 -21   7    0.44    0.58
   0 -21  -7    0.00    0.58
   0  21  -7    0.97    0.58
  -1 -21  -7    2.72    0.82
  -1  21  -7    2.86    0.70
  -2 -21  -7    6.48    1.06
  -2  21  -7    6.25    0.89
   2 -22  -7    0.57    0.63
  -2 -22   7    1.21    0.76
  -2  22   7    0.39    0.73
   1 -22  -7    0.11    0.66
  -1 -22   7   -0.11    0.65
   0 -22   7    4.94    0.93
   0 -22  -7    6.62    1.14
   0  22  -7    7.77    1.05
  -1 -22  -7    0.40    0.66
  -1  22  -7   -0.22    0.53
   1 -23  -7    0.62    0.71
  -1 -23   7   -0.90    0.57
   0 -23   7   -0.25    0.63
   0 -23  -7   -0.93    0.67
   0  23  -7   -0.18    0.61
  -1 -23  -7    1.09    0.67
  -5   0   8    7.96    1.22
   4   0  -8    0.57    0.52
  -4   0   8    0.82    0.53
  -4   0   8    0.43    0.41
  -3   0   8   43.65    2.60
   2   0  -8  224.61   12.37
  -2   0   8  236.62   12.18
  -1   0   8  135.29    7.15
   0   0  -8   68.68    4.05
   0   0  -8   78.32    4.10
  -1   0  -8   47.92    2.74
  -1   0  -8   47.75    2.75
  -2   0  -8   41.52    2.44
  -2   0  -8   43.15    2.53
  -3   0  -8   66.75    3.88
  -4   0  -8    2.63    0.71
  -5  -1   8   12.67    1.50
  -5   1   8   11.75    1.47
   4  -1  -8    1.99    0.67
  -4  -1   8    2.21    0.62
   4   1  -8    1.39    0.59
  -4   1   8    2.63    0.63
  -3  -1   8    6.81    0.77
   3  -1  -8    5.86    0.87
  -3   1   8    7.17    0.81
   2  -1  -8  111.59    6.12
  -2  -1   8  108.87    5.90
  -2   1   8  110.63    5.94
   2   1  -8  110.47    6.14
  -1  -1   8   10.42    0.68
   1  -1  -8    8.85    0.74
   1  -1  -8   13.39    0.93
   1   1  -8   12.27    0.93
  -1   1   8   11.10    0.75
   1   1  -8    8.48    0.78
   0  -1  -8  196.89   10.24
   0  -1  -8  183.85   10.19
   0   1  -8  196.66   10.24
   0   1  -8  191.29   10.23
  -1  -1  -8    3.64    0.49
  -1  -1  -8    3.55    0.50
  -1   1  -8    3.93    0.52
  -2  -1  -8    7.89    0.81
  -2  -1  -8    7.86    0.75
  -2   1  -8    8.19    0.83
  -2   1  -8    8.86    0.73
  -3  -1  -8   33.82    2.19
  -3   1  -8   34.39    2.24
  -4  -1  -8    0.19    0.57
  -4   1  -8    0.32    0.65
  -5  -2   8    3.68    0.96
  -5   2   8    2.57    0.87
  -4  -2   8    0.20    0.44
   4  -2  -8    0.37    0.56
   4   2  -8    0.08    0.46
  -4   2   8    0.40    0.48
  -3  -2   8   16.97    1.28
   3  -2  -8   20.27    1.52
   3   2  -8   18.89    1.50
  -3   2   8   19.20    1.36
  -2  -2   8  110.10    5.74
   2  -2  -8  105.29    5.95
   2   2  -8  105.73    5.98
  -2   2   8  107.23    5.80
   1  -2  -8   57.28    3.73
   1  -2  -8   82.12    3.97
  -1  -2   8   68.07    3.67
  -1   2   8   73.09    3.78
   0  -2  -8   18.38    1.26
   0  -2  -8   21.34    1.35
   0   2  -8   19.35    1.34
   0   2  -8   20.44    1.33
  -1  -2  -8   13.19    0.95
  -1  -2  -8   14.00    0.93
  -1   2  -8   10.00    0.93
  -1   2  -8   11.43    0.90
  -2  -2  -8   38.52    2.25
  -2  -2  -8   36.64    2.26
  -2   2  -8   37.55    2.31
  -2   2  -8   38.21    2.21
  -3  -2  -8   42.28    2.54
  -3   2  -8   39.20    2.55
  -4  -2  -8    4.23    0.83
  -4   2  -8    5.71    0.94
  -5   3   8    1.51    0.79
   4  -3  -8    1.42    0.65
  -4  -3   8    1.54    0.56
  -4   3   8    1.38    0.58
   4   3  -8    1.73    0.62
   3  -3  -8   10.62    1.18
  -3  -3   8   11.94    0.97
  -3   3   8   12.58    1.05
   3   3  -8   13.75    1.22
   2  -3  -8    0.27    0.35
  -2  -3   8    0.21    0.22
  -2   3   8    0.48    0.32
   2   3  -8    0.80    0.41
   1  -3  -8   34.18    2.12
   1  -3  -8   43.93    2.36
  -1   3   8   37.34    2.20
   1   3  -8   42.13    2.38
   0  -3  -8    5.42    0.68
   0  -3  -8    5.90    0.58
   0   3  -8    6.25    0.69
   0   3  -8    6.23    0.68
  -1  -3  -8    1.69    0.37
  -1  -3  -8    2.02    0.36
  -1   3  -8    2.13    0.45
  -1   3  -8    2.20    0.41
  -2  -3  -8   18.72    1.24
  -2   3  -8   17.52    1.30
  -2   3  -8   16.64    1.17
  -3  -3  -8   -0.06    0.39
  -3   3  -8    0.73    0.53
  -4  -3  -8    4.80    0.89
  -4   3  -8    4.85    0.87
  -5  -4   8    1.04    0.64
  -5   4   8    0.84    0.71
  -4  -4   8    4.21    0.75
   4  -4  -8    4.12    0.83
  -4   4   8    2.86    0.68
   4   4  -8    3.50    0.78
   3  -4  -8    0.73    0.45
  -3  -4   8    0.21    0.33
   3   4  -8    0.23    0.50
  -3   4   8    0.75    0.46
   2  -4  -8   -0.19    0.35
  -2  -4   8    0.34    0.22
   2   4  -8   -0.06    0.36
  -2   4   8    0.40    0.33
   1  -4  -8   16.09    1.10
   1  -4  -8   13.87    0.85
   1   4  -8   17.64    1.16
   1   4  -8   10.54    1.00
  -1   4   8   14.62    1.00
   0  -4  -8    0.18    0.22
   0  -4  -8    0.22    0.27
   0   4  -8    0.48    0.34
   0   4  -8    0.07    0.14
  -1  -4  -8    8.06    0.67
  -1  -4  -8    8.01    0.77
  -1   4  -8    6.75    0.71
  -1   4  -8    7.28    0.79
  -2  -4  -8    0.97    0.39
  -2  -4  -8    0.80    0.36
  -2   4  -8    0.69    0.44
  -2   4  -8    1.05    0.34
  -3  -4  -8    2.72    0.62
  -3   4  -8    3.07    0.66
  -4  -4  -8    3.01    0.78
  -4   4  -8    1.36    0.65
  -5  -5   8   11.02    1.32
  -5   5   8   11.87    1.47
  -4  -5   8    1.62    0.69
   4  -5  -8    2.79    0.76
  -4   5   8    2.46    0.66
  -3  -5   8   29.00    1.85
   3  -5  -8   33.55    2.15
  -3   5   8   30.51    1.98
   3   5  -8   28.74    2.05
  -2  -5   8   34.42    1.89
   2  -5  -8   31.25    2.11
  -2   5   8   34.14    2.05
   2   5  -8   32.21    2.14
   1  -5  -8   14.41    1.01
   1  -5  -8   11.29    0.68
   1   5  -8   13.45    1.04
   1   5  -8    8.94    0.91
  -1   5   8   12.46    0.91
   0  -5  -8  116.47    6.36
   0  -5  -8  116.19    6.50
   0   5  -8  118.35    6.50
   0   5  -8  128.45    6.53
  -1  -5  -8    3.94    0.48
  -1  -5  -8    4.28    0.57
  -1   5  -8    3.13    0.49
  -1   5  -8    4.54    0.65
  -2  -5  -8   57.03    3.23
  -2  -5  -8   58.45    3.24
  -2   5  -8   53.50    3.30
  -3  -5  -8   14.36    1.25
  -3   5  -8   15.62    1.36
  -4  -5  -8    2.82    0.78
  -4   5  -8    2.64    0.80
  -5  -6   8    1.06    1.09
  -5   6   8   -0.10    0.64
  -4  -6   8    4.35    0.82
  -4   6   8    4.05    0.81
   3  -6  -8   15.47    1.32
   3   6  -8   12.91    1.22
  -3   6   8   13.39    1.17
   2  -6  -8   52.18    3.26
   2   6  -8   55.04    3.29
  -2   6   8   58.31    3.22
   1  -6  -8   22.10    1.41
   1   6  -8   20.99    1.39
  -1   6   8   17.07    1.30
   0  -6  -8    5.60    0.64
   0  -6  -8    5.03    0.46
   0   6  -8    5.74    0.68
   0   6  -8    4.51    0.60
  -1  -6  -8   19.51    1.28
  -1  -6  -8   21.30    1.39
  -1   6  -8   20.69    1.34
  -1   6  -8   19.43    1.45
  -2  -6  -8    6.46    0.70
  -2  -6  -8    5.51    0.64
  -2   6  -8    6.07    0.79
  -3  -6  -8   22.70    1.61
  -3   6  -8   22.48    1.69
  -4  -6  -8    1.19    0.71
  -4   6  -8    1.28    0.72
  -5  -7   8    1.17    0.67
  -5   7   8    1.51    0.81
  -4  -7   8    4.79    0.95
  -4   7   8    6.66    0.99
   3  -7  -8    0.45    0.51
  -3   7   8    0.30    0.47
   3   7  -8    0.35    0.51
   2  -7  -8    5.07    0.77
   2   7  -8    5.38    0.79
  -2   7   8    5.20    0.72
   1  -7  -8   77.41    4.20
   1   7  -8   76.15    4.19
  -1   7   8   68.70    4.11
   0  -7  -8   54.23    3.01
   0  -7  -8   52.95    3.19
   0   7  -8   54.97    3.20
   0   7  -8   60.53    3.24
  -1  -7  -8   33.80    2.05
  -1  -7  -8   33.38    1.92
  -1   7  -8   31.75    2.11
  -1   7  -8   32.63    2.00
  -2  -7  -8    0.57    0.35
  -2  -7  -8    0.35    0.35
  -2   7  -8    0.61    0.46
  -3  -7  -8    0.42    0.63
  -3  -7  -8   -0.45    0.38
  -3   7  -8    0.47    0.56
  -4  -7  -8    5.40    0.94
  -4   7  -8    3.42    0.88
  -4  -8   8    0.77    0.59
  -4   8   8    0.38    0.63
  -3  -8   8   37.25    2.53
   3  -8  -8   37.76    2.49
  -3   8   8   37.21    2.41
   2  -8  -8  102.33    5.67
  -2   8   8  100.60    5.63
   2   8  -8  100.79    5.67
   1  -8  -8   92.84    4.93
  -1   8   8   77.65    4.85
   1   8  -8   95.35    4.95
   0  -8  -8    4.15    0.39
   0  -8  -8    2.82    0.51
   0   8  -8    4.60    0.61
   0   8  -8    4.78    0.62
  -1  -8  -8    8.75    0.69
  -1  -8  -8    8.54    0.87
  -1   8  -8    8.04    0.93
  -1   8  -8    9.43    0.80
  -2  -8  -8   61.37    3.50
  -2  -8  -8   63.70    3.56
  -2   8  -8   59.87    3.64
  -3  -8  -8   20.75    1.45
  -3   8  -8   18.14    1.55
  -4  -8  -8   10.09    1.18
  -4   8  -8    8.44    1.16
  -4  -9   8   15.89    1.59
  -4   9   8   12.61    1.35
   3  -9  -8   14.47    1.33
  -3  -9   8   14.17    1.46
  -3   9   8   13.41    1.21
   2  -9  -8    0.26    0.44
   2   9  -8    0.41    0.43
  -2   9   8    0.94    0.49
   1  -9  -8  117.94    5.85
   1   9  -8  121.32    5.87
   1   9  -8   87.41    5.78
  -1   9   8   95.76    5.76
   0  -9  -8    2.01    0.49
   0   9  -8    1.26    0.40
   0   9  -8    2.52    0.54
  -1  -9  -8   52.74    3.13
  -1  -9  -8   58.28    3.30
  -1   9  -8   56.52    3.23
  -1   9  -8   60.63    3.39
  -2  -9  -8   22.96    1.64
  -2  -9  -8   24.61    1.59
  -2   9  -8   25.05    1.77
  -3  -9  -8   -0.06    0.43
  -3  -9  -8    0.66    0.46
  -3   9  -8    1.19    0.59
  -4  -9  -8   13.21    1.38
  -4   9  -8   10.37    1.28
  -4 -10   8    0.27    0.63
  -4  10   8    1.30    0.64
   3 -10  -8   19.49    1.59
  -3 -10   8   20.42    1.65
  -3  10   8   18.70    1.56
  -2 -10   8   36.70    2.33
   2 -10  -8   30.76    2.15
  -2  10   8   33.48    2.17
   1 -10  -8   87.43    4.39
   1  10  -8   68.42    4.34
  -1  10   8   73.23    4.33
   0 -10  -8    4.48    0.64
   0  10  -8    4.74    0.65
   1 -10   8    0.91    0.41
  -1 -10  -8    0.54    0.29
  -1 -10  -8    1.03    0.41
  -1  10  -8    1.56    0.53
  -2 -10  -8   45.83    2.73
  -2 -10  -8   43.74    2.63
  -2  10  -8   45.25    2.86
  -3 -10  -8   10.19    0.99
  -3 -10  -8    6.76    0.87
  -3  10  -8    7.98    1.09
  -4 -10  -8    6.57    1.06
  -4  10  -8    5.59    1.08
  -4 -11   8    0.51    0.61
  -4  11   8    0.03    0.65
   3 -11  -8    7.76    1.04
  -3 -11   8    5.77    0.96
  -3  11   8    8.59    1.08
  -2 -11   8    2.29    0.68
   2 -11  -8    1.74    0.46
  -2  11   8    2.74    0.67
   1 -11  -8   12.45    1.06
  -1 -11   8   11.94    1.08
   1  11  -8   10.18    1.13
  -1  11   8    9.32    0.99
   0 -11   8    0.13    0.36
   0 -11  -8    0.48    0.38
   0  11  -8    0.23    0.42
  -1 -11  -8    2.73    0.54
   1 -11   8    1.63    0.48
  -1 -11  -8    2.55    0.40
  -1  11  -8    2.96    0.58
  -2 -11  -8   20.28    1.47
  -2 -11  -8   20.65    1.37
  -2  11  -8   16.12    1.50
  -3 -11  -8    3.33    0.70
  -3 -11  -8    3.43    0.70
  -3  11  -8    3.49    0.78
  -4 -12   8    3.38    0.85
  -4  12   8    4.86    0.94
  -3 -12   8   -0.47    0.54
   3 -12  -8    0.13    0.47
  -3  12   8    0.36    0.56
  -2 -12   8    5.26    0.85
  -2  12   8    6.34    0.93
  -1 -12   8   17.89    1.45
   1 -12  -8   18.58    1.37
   1  12  -8   14.19    1.34
  -1  12   8   16.76    1.39
   0 -12  -8    4.19    0.69
   0 -12   8    3.90    0.69
   0  12  -8    4.11    0.66
  -1 -12  -8    0.57    0.43
   1 -12   8   -0.02    0.39
  -1  12  -8    0.85    0.47
  -2 -12  -8    0.11    0.36
  -2 -12  -8    0.77    0.44
  -2  12  -8    0.25    0.52
  -3 -12  -8    0.42    0.52
  -3 -12  -8    0.19    0.51
  -3  12  -8    0.04    0.57
  -4 -13   8   16.59    1.72
  -4  13   8   18.02    1.71
  -3 -13   8    0.44    0.62
   3 -13  -8    0.52    0.54
  -3  13   8   -0.17    0.61
  -2 -13   8   16.63    1.45
  -2  13   8   13.59    1.34
  -1 -13   8   22.59    1.64
   1 -13  -8   21.04    1.54
  -1  13   8   20.89    1.59
   1  13  -8   16.81    1.52
   0 -13   8    4.02    0.72
   0 -13  -8    4.79    0.71
   0  13  -8    4.88    0.72
   1 -13   8   72.22    4.42
  -1 -13  -8   78.19    4.50
  -1  13  -8   85.67    4.51
  -2 -13  -8    1.99    0.56
  -2 -13  -8    2.72    0.53
  -2  13  -8    2.19    0.69
  -3 -13  -8    9.78    1.13
  -3 -13  -8   10.58    1.11
  -3  13  -8    9.49    1.23
  -4 -14   8    3.95    0.95
  -4  14   8    4.83    1.00
  -3 -14   8   13.76    1.45
   3 -14  -8   12.97    1.38
  -3  14   8   12.16    1.44
  -2 -14   8    1.99    0.66
   2 -14  -8    0.60    0.28
  -2  14   8    3.79    0.81
   1 -14  -8    5.39    0.76
  -1 -14   8    5.85    0.89
   1  14  -8    3.20    0.74
  -1  14   8    4.87    0.79
   0 -14   8    9.98    1.09
   0 -14  -8    7.43    0.94
   0  14  -8   11.09    1.09
  -1 -14  -8    2.75    0.60
   1 -14   8    3.07    0.60
  -1  14  -8    2.52    0.60
  -2 -14  -8   15.65    1.38
  -2 -14  -8   16.17    1.31
  -2  14  -8   14.74    1.36
  -3 -14  -8    1.10    0.57
  -3 -14  -8    0.92    0.59
  -3  14  -8    0.43    0.61
  -4 -15   8    6.80    1.18
  -4  15   8   10.23    1.41
   3 -15  -8    0.31    0.58
  -3 -15   8    0.56    0.71
  -3  15   8    1.57    0.73
   2 -15  -8    0.32    0.38
  -2 -15   8    1.18    0.60
  -2  15   8    1.52    0.65
   1 -15  -8   36.36    2.36
  -1 -15   8   37.68    2.48
  -1  15   8   39.15    2.43
   1  15  -8   31.92    2.34
   0 -15   8   18.28    1.56
   0 -15  -8   20.72    1.55
   0  15  -8   23.18    1.58
  -1 -15  -8   54.22    3.22
   1 -15   8   40.73    3.46
  -1  15  -8   59.86    3.20
  -2 -15  -8    0.82    0.53
  -2  15  -8    1.91    0.67
  -3 -15  -8    0.42    0.63
  -3 -15  -8    0.49    0.55
  -3  15  -8    1.38    0.74
   3 -16  -8   13.11    1.42
  -3 -16   8   11.11    1.41
  -3  16   8   12.46    1.50
   2 -16  -8    7.51    1.03
  -2 -16   8   12.06    1.29
  -2  16   8   10.24    1.23
  -1 -16   8    8.05    1.01
   1 -16  -8    8.57    1.00
   1  16  -8    5.70    0.89
  -1  16   8    7.01    0.99
   0 -16  -8    0.24    0.46
   0 -16   8    0.76    0.49
   0  16  -8    0.24    0.48
  -1 -16  -8    5.91    0.88
  -1  16  -8    6.50    0.88
  -2 -16  -8   15.34    1.40
  -2  16  -8   16.67    1.39
  -3 -16  -8    3.12    0.86
  -3  16  -8    3.18    0.79
  -3 -17   8    4.05    1.00
  -3  17   8    5.18    1.07
  -2 -17   8    5.18    0.97
   2 -17  -8    4.41    0.86
  -2  17   8    6.89    1.07
   1 -17  -8    1.19    0.59
  -1 -17   8    0.47    0.61
  -1  17   8    1.32    0.64
   1  17  -8    0.03    0.47
   0 -17  -8   28.63    2.04
   0 -17   8   27.91    2.04
   0  17  -8   28.88    2.04
  -1 -17  -8    0.80    0.55
  -1  17  -8    0.62    0.53
  -2 -17  -8    2.42    0.76
  -2  17  -8    3.42    0.78
  -3 -18   8    2.25    0.88
  -3  18   8    1.99    0.81
   2 -18  -8   15.11    1.38
  -2 -18   8   11.90    1.48
  -2  18   8   13.61    1.57
  -1 -18   8    6.82    1.07
   1 -18  -8    6.52    0.97
   1  18  -8    4.37    0.90
  -1  18   8    8.13    1.13
   0 -18  -8   -0.01    0.52
   0 -18   8    0.48    0.55
   0  18  -8    0.01    0.59
  -1 -18  -8    8.35    1.11
  -1  18  -8    8.09    1.01
  -2 -18  -8    2.19    0.71
  -2  18  -8    2.50    0.65
  -3 -19   8    0.16    0.72
  -3  19   8    0.05    0.67
  -2 -19   8    1.97    0.77
   2 -19  -8    3.39    0.82
  -2  19   8    3.77    0.98
   1 -19  -8    0.55    0.63
  -1 -19   8    0.26    0.62
  -1  19   8    0.25    0.66
   1  19  -8    0.12    0.54
   0 -19   8    3.31    0.75
   0 -19  -8    2.83    0.74
   0  19  -8    3.13    0.76
  -1 -19  -8    5.34    0.91
  -1  19  -8    4.86    0.81
  -2 -19  -8    1.69    0.73
  -2  19  -8    0.45    0.60
  -2 -20   8    2.75    0.89
   2 -20  -8    3.68    0.86
  -2  20   8    2.98    0.89
  -1 -20   8    0.96    0.69
   1 -20  -8    1.16    0.70
   1  20  -8    1.84    0.70
   0 -20  -8    1.53    0.73
   0 -20   8    2.95    0.77
   0  20  -8    3.70    0.79
  -1 -20  -8    0.35    0.58
  -1  20  -8    0.47    0.55
  -2 -20  -8    0.38    0.69
  -2  20  -8    0.33    0.59
  -2 -21   8   -0.51    0.61
   2 -21  -8    0.44    0.66
  -2  21   8    0.38    0.74
   1 -21  -8    0.93    0.66
  -1 -21   8    0.61    0.64
   0 -21   8    7.79    1.11
   0 -21  -8    7.94    1.22
   0  21  -8    9.03    1.14
  -1 -21  -8    6.70    1.09
  -1  21  -8    7.36    0.97
   1 -22  -8    0.64    0.66
  -1 -22   8    0.97    0.71
   0 -22   8    0.71    0.66
   0 -22  -8    2.68    0.88
   0  22  -8    0.32    0.68
  -1 -22  -8    0.95    0.71
  -1  22  -8    0.94    0.62
  -4   0   9    0.45    0.48
   4   0  -9    0.95    0.65
  -3   0   9    0.07    0.34
   3   0  -9    0.67    0.49
  -2   0   9    0.51    0.29
   2   0  -9    0.44    0.43
  -1   0   9    0.18    0.20
   1   0  -9   -0.36    0.20
   1   0  -9    0.50    0.33
   0   0  -9    0.10    0.33
   0   0  -9    0.14    0.30
  -1   0  -9    0.05    0.28
  -1   0  -9   -0.08    0.31
  -2   0  -9    0.34    0.42
  -2   0  -9    0.48    0.34
  -3   0  -9    0.58    0.49
  -4   0  -9    0.89    0.62
  -5   1   9   -0.59    0.58
  -4  -1   9   11.42    1.09
   4  -1  -9   13.93    1.45
  -4   1   9   12.01    1.16
   4   1  -9   11.38    1.36
  -3  -1   9    0.79    0.38
   3  -1  -9    0.60    0.54
   3   1  -9    1.87    0.58
  -3   1   9    0.84    0.41
  -2  -1   9   38.78    2.15
   2  -1  -9   35.52    2.37
  -2   1   9   39.50    2.19
   2   1  -9   33.45    2.39
   1  -1  -9    1.57    0.43
   1  -1  -9    0.80    0.29
   1   1  -9    1.09    0.34
  -1   1   9    2.77    0.36
   1   1  -9    3.12    0.55
   0  -1  -9    0.07    0.29
   0  -1  -9   -0.11    0.31
   0   1  -9    0.01    0.29
   0   1  -9    0.37    0.32
  -1  -1  -9   38.35    2.24
  -1  -1  -9   36.63    2.23
  -1   1  -9   36.84    2.24
  -1   1  -9   37.22    2.25
  -2  -1  -9   -0.04    0.31
  -2  -1  -9    0.32    0.37
  -2   1  -9   -0.06    0.31
  -2   1  -9    0.14    0.37
  -3  -1  -9   14.12    1.29
  -3   1  -9   14.86    1.27
  -4  -1  -9    0.64    0.68
  -4   1  -9    2.48    0.79
  -5   2   9    8.96    1.24
   4  -2  -9    0.54    0.64
  -4   2   9    0.86    0.54
   4   2  -9    0.89    0.57
  -3  -2   9   26.38    1.69
   3   2  -9   25.37    1.93
  -3   2   9   27.38    1.74
  -2  -2   9   12.61    0.86
   2  -2  -9   13.65    1.14
  -2   2   9   12.21    0.94
   2   2  -9   11.79    1.12
   1  -2  -9    2.26    0.38
   1  -2  -9    4.92    0.65
  -1   2   9    4.00    0.46
   1   2  -9    3.57    0.58
   0  -2  -9  130.56    7.09
   0  -2  -9  129.94    7.16
   0   2  -9  128.37    7.16
   0   2  -9  139.23    7.15
  -1  -2  -9    6.34    0.70
  -1  -2  -9    6.28    0.69
  -1   2  -9    6.26    0.71
  -2  -2  -9   28.04    1.77
  -2   2  -9   27.79    1.74
  -2   2  -9   27.43    1.86
  -3  -2  -9    4.15    0.74
  -3   2  -9    3.07    0.68
  -4  -2  -9    0.28    0.63
  -4   2  -9   -0.43    0.54
  -5   3   9    0.29    0.67
   4  -3  -9   33.16    2.55
  -4   3   9   36.73    2.40
   4   3  -9   40.41    2.60
   3   3  -9   16.41    1.44
  -3   3   9   16.53    1.24
   2  -3  -9  105.67    5.85
  -2  -3   9  100.61    5.60
  -2   3   9  106.39    5.67
   2   3  -9  104.42    5.84
   1  -3  -9    5.44    0.53
   1  -3  -9    8.20    0.84
  -1   3   9    7.17    0.63
   1   3  -9    8.82    0.88
   0  -3  -9    1.46    0.34
   0  -3  -9    0.80    0.37
   0   3  -9    0.52    0.35
   0   3  -9    0.12    0.33
  -1  -3  -9  196.89   10.45
  -1  -3  -9  194.71   10.51
  -1   3  -9  193.23   10.54
  -1   3  -9  201.58   10.50
  -2  -3  -9   13.20    1.05
  -2  -3  -9   13.00    1.07
  -2   3  -9   13.31    1.12
  -3  -3  -9   33.44    2.13
  -3   3  -9   31.18    2.17
  -4  -3  -9    1.44    0.72
  -4   3  -9    1.53    0.67
  -5   4   9    3.49    0.91
   4  -4  -9   12.18    1.46
  -4   4   9   12.15    1.20
   4   4  -9   12.96    1.43
   3  -4  -9   29.31    2.06
  -3   4   9   28.23    1.86
   3   4  -9   26.47    1.97
   2  -4  -9    0.19    0.43
   2   4  -9    0.30    0.48
  -2   4   9    0.16    0.36
   1  -4  -9   12.22    0.87
   1  -4  -9   15.90    1.15
   1   4  -9   18.49    1.22
  -1   4   9   14.25    1.00
   0  -4  -9   90.29    4.89
   0  -4  -9   85.71    5.01
   0   4  -9   97.75    5.02
   0   4  -9   87.02    5.01
  -1  -4  -9   60.69    3.56
  -1  -4  -9   63.25    3.50
  -1   4  -9   63.88    3.57
  -1   4  -9   61.87    3.61
  -2  -4  -9   11.72    0.99
  -2  -4  -9   11.44    1.00
  -2   4  -9   12.21    1.13
  -3  -4  -9    1.09    0.53
  -3   4  -9    1.40    0.63
  -4  -4  -9    1.70    0.72
  -4   4  -9    2.67    0.83
   4  -5  -9   12.64    1.51
  -4   5   9   14.17    1.29
   3  -5  -9   57.43    3.61
  -3   5   9   57.72    3.43
   3   5  -9   61.13    3.61
   2  -5  -9   36.02    2.28
   2   5  -9   34.93    2.27
  -2   5   9   34.27    2.13
   1  -5  -9    2.98    0.54
   1   5  -9    1.62    0.48
   1   5  -9    6.41    0.75
  -1   5   9    2.45    0.46
   0  -5  -9   47.62    2.80
   0  -5  -9   47.16    2.64
   0   5  -9   45.66    2.78
  -1  -5  -9   45.15    2.62
  -1  -5  -9   43.68    2.52
  -1   5  -9   41.30    2.66
  -1   5  -9   43.92    2.59
  -2  -5  -9   59.08    3.31
  -2  -5  -9   57.57    3.28
  -2   5  -9   54.37    3.38
  -3  -5  -9    3.52    0.65
  -3   5  -9    4.46    0.83
  -4  -5  -9    0.72    0.65
  -4   5  -9   -0.38    0.66
  -4  -6   9   17.11    1.66
   4  -6  -9   20.15    1.82
  -4   6   9   18.37    1.53
   3  -6  -9    5.80    0.90
  -3   6   9    4.36    0.70
   3   6  -9    5.29    0.86
   2  -6  -9   17.78    1.46
  -2   6   9   19.03    1.35
   2   6  -9   19.13    1.48
   1  -6  -9   30.33    1.87
  -1   6   9   24.57    1.69
   1   6  -9   29.51    1.84
   0  -6  -9    6.33    0.59
   0  -6  -9    6.83    0.77
   0   6  -9    8.79    0.86
   0   6  -9    8.10    0.82
  -1  -6  -9   58.56    3.35
  -1  -6  -9   58.40    3.25
  -1   6  -9   55.45    3.41
  -1   6  -9   59.29    3.34
  -2  -6  -9    3.14    0.55
  -2  -6  -9    3.86    0.61
  -2   6  -9    3.33    0.69
  -3  -6  -9    2.94    0.65
  -3   6  -9    3.07    0.70
  -4  -6  -9    3.36    0.81
  -4   6  -9    2.49    0.76
   4  -7  -9    0.22    0.70
  -4  -7   9    0.48    0.59
  -4   7   9    0.56    0.62
   3  -7  -9   38.36    2.53
  -3   7   9   37.01    2.37
   3   7  -9   35.39    2.48
   2  -7  -9    3.18    0.64
   2   7  -9    3.60    0.66
  -2   7   9    3.30    0.61
   1  -7  -9    6.05    0.79
   1   7  -9    7.59    0.87
  -1   7   9    7.04    0.77
   1   7  -9    3.91    0.67
   0  -7  -9  100.39    5.49
   0  -7  -9   97.01    5.60
   0   7  -9  108.82    5.62
   0   7  -9   99.14    5.59
  -1  -7  -9    4.77    0.54
  -1  -7  -9    2.44    0.55
  -1   7  -9    4.36    0.60
  -1   7  -9    4.01    0.68
  -2  -7  -9   37.64    2.31
  -2  -7  -9   40.41    2.38
  -2   7  -9   36.52    2.45
  -3   7  -9    4.24    0.80
  -4  -7  -9    0.77    0.62
  -4   7  -9    1.86    0.72
  -4  -8   9    0.75    0.70
  -4   8   9    2.28    0.71
   3  -8  -9    1.55    0.60
  -3   8   9    2.01    0.64
   2  -8  -9   25.14    1.80
   2   8  -9   24.48    1.77
  -2   8   9   25.23    1.71
   1  -8  -9    1.57    0.52
   1   8  -9    2.07    0.57
   1   8  -9    2.40    0.54
  -1   8   9    2.16    0.52
   0  -8  -9    3.71    0.60
   0   8  -9    2.78    0.56
   0   8  -9    5.39    0.69
  -1  -8  -9    1.96    0.47
  -1  -8  -9    1.69    0.37
  -1   8  -9    2.14    0.47
  -1   8  -9    2.49    0.63
  -2  -8  -9    1.13    0.46
  -2  -8  -9    2.37    0.51
  -2   8  -9    2.69    0.67
  -3  -8  -9    1.50    0.57
  -3   8  -9    0.20    0.63
  -4  -8  -9   -0.38    0.63
  -4   8  -9    0.83    0.66
  -4  -9   9    0.27    0.57
  -4   9   9    0.60    0.64
  -3  -9   9    0.58    0.59
   3  -9  -9    0.89    0.57
  -3   9   9    0.80    0.52
   2  -9  -9    7.37    0.92
  -2   9   9    8.23    0.86
   2   9  -9    7.19    0.92
   1  -9  -9    4.89    0.71
  -1   9   9    3.49    0.66
   1   9  -9    2.96    0.61
   0  -9  -9    7.54    0.85
   0   9  -9    9.07    0.91
   0   9  -9    7.61    0.85
  -1  -9  -9   -0.08    0.25
  -1  -9  -9    0.19    0.35
  -1   9  -9    0.36    0.47
  -1   9  -9   -0.19    0.34
  -2  -9  -9    0.96    0.46
  -2  -9  -9    0.73    0.42
  -2   9  -9    1.33    0.58
  -3  -9  -9    7.89    0.90
  -3   9  -9    6.41    0.97
  -4 -10   9    7.98    1.19
  -4  10   9    7.33    1.13
  -3 -10   9    3.77    0.87
   3 -10  -9    2.82    0.77
  -3  10   9    3.38    0.77
   2 -10  -9    1.95    0.55
  -2  10   9    1.27    0.58
   1 -10  -9   56.87    3.27
   1  10  -9   62.93    3.32
   1  10  -9   47.43    3.24
  -1  10   9   52.17    3.20
   0 -10  -9   17.22    1.31
   0  10  -9   15.47    1.26
   0  10  -9   18.77    1.35
  -1 -10  -9   33.18    2.29
  -1 -10  -9   35.41    2.26
  -1  10  -9   37.95    2.31
  -2 -10  -9    1.86    0.57
  -2 -10  -9    1.36    0.45
  -2  10  -9    1.57    0.61
  -3 -10  -9    0.00    0.48
  -3 -10  -9    0.40    0.50
  -3  10  -9    0.43    0.58
  -4 -11   9    1.09    0.75
  -4  11   9    0.96    0.65
   3 -11  -9   32.38    2.26
  -3 -11   9   31.14    2.32
  -3  11   9   29.52    2.17
   2 -11  -9    8.96    1.03
  -2 -11   9    7.38    1.03
  -2  11   9    8.20    0.97
   1 -11  -9   42.75    2.48
  -1  11   9   39.15    2.40
   1  11  -9   31.94    2.39
   0 -11  -9   14.07    1.19
   0  11  -9   13.08    1.17
  -1 -11  -9    2.73    0.62
   1 -11   9    2.77    0.58
  -1  11  -9    2.55    0.58
  -2 -11  -9   52.78    3.11
  -2 -11  -9   52.10    2.98
  -2  11  -9   47.31    3.15
  -3 -11  -9    0.54    0.46
  -3 -11  -9    1.22    0.59
  -3  11  -9    0.47    0.69
  -4 -12   9    8.80    1.32
  -4  12   9   12.11    1.40
  -3 -12   9    0.28    0.64
   3 -12  -9    0.49    0.56
  -3  12   9    0.46    0.66
  -2 -12   9   -0.05    0.50
   2 -12  -9    0.01    0.50
  -2  12   9    0.00    0.50
  -1 -12   9   48.90    3.03
   1 -12  -9   52.26    3.01
  -1  12   9   49.31    2.93
   1  12  -9   42.17    2.94
   0 -12  -9   31.61    2.11
   0 -12   9   30.58    2.16
   0  12  -9   35.00    2.13
   1 -12   9   36.19    2.39
  -1 -12  -9   36.90    2.43
  -1  12  -9   43.09    2.48
  -2 -12  -9   -0.49    0.45
  -2 -12  -9    0.08    0.37
  -2  12  -9    0.29    0.61
  -3 -12  -9    0.75    0.57
  -3 -12  -9    0.98    0.54
  -3  12  -9   -0.32    0.58
  -4 -13   9    0.76    0.72
  -4  13   9    2.06    0.84
   3 -13  -9   25.52    1.93
  -3 -13   9   21.64    1.92
  -3  13   9   24.56    1.92
  -2 -13   9    6.07    0.95
   2 -13  -9    6.62    0.94
  -2  13   9    4.02    0.80
   1 -13  -9    6.74    0.88
  -1 -13   9    4.64    0.80
  -1  13   9    5.81    0.86
   1  13  -9    4.60    0.79
   0 -13  -9   29.08    1.96
   0 -13   9   27.71    2.00
   0  13  -9   29.56    1.94
  -1 -13  -9   15.76    1.31
   1 -13   9   13.54    1.21
  -1  13  -9   14.28    1.23
  -2 -13  -9   28.21    1.95
  -2  13  -9   25.62    1.95
  -3 -13  -9    1.34    0.63
  -3 -13  -9    0.93    0.55
  -3  13  -9    0.87    0.73
  -4 -14   9    2.28    0.83
  -4  14   9    1.75    0.76
  -3 -14   9   10.57    1.39
   3 -14  -9   12.38    1.38
  -3  14   9   10.25    1.30
  -2 -14   9    0.46    0.60
   2 -14  -9    0.34    0.51
  -2  14   9   -0.08    0.61
  -1 -14   9    0.49    0.52
   1 -14  -9    0.73    0.46
  -1  14   9    0.58    0.54
   1  14  -9    0.90    0.53
   0 -14  -9   21.09    1.66
   0 -14   9   24.56    1.76
   0  14  -9   23.61    1.67
  -1 -14  -9    1.88    0.62
  -1  14  -9    1.63    0.56
  -2 -14  -9    4.43    0.80
  -2  14  -9    4.64    0.83
  -3 -14  -9    0.85    0.64
  -3 -14  -9    0.98    0.70
  -3  14  -9    0.32    0.68
  -3 -15   9    0.19    0.72
   3 -15  -9    0.37    0.60
  -3  15   9    1.07    0.71
   2 -15  -9    5.79    0.86
  -2 -15   9    5.09    0.93
  -2  15   9    3.95    0.87
  -1 -15   9    4.34    0.81
   1 -15  -9    4.61    0.78
   1  15  -9    4.01    0.78
  -1  15   9    4.50    0.81
   0 -15  -9    2.07    0.62
   0 -15   9    2.75    0.66
   0  15  -9    2.92    0.65
  -1 -15  -9   19.53    1.62
  -1  15  -9   23.66    1.63
  -2 -15  -9    0.05    0.56
  -2  15  -9    0.21    0.58
  -3 -15  -9    1.23    0.64
  -3  15  -9    1.35    0.67
  -3 -16   9   11.06    1.37
   3 -16  -9    9.00    1.22
  -3  16   9    7.38    1.14
  -2 -16   9    2.90    0.82
   2 -16  -9    4.09    0.78
  -2  16   9    3.41    0.90
   1 -16  -9   12.51    1.27
  -1 -16   9   13.58    1.39
   1  16  -9   10.55    1.23
  -1  16   9   10.58    1.16
   0 -16  -9   -0.68    0.47
   0 -16   9   -0.02    0.49
   0  16  -9    0.44    0.55
  -1 -16  -9    1.00    0.60
  -1  16  -9    1.69    0.57
  -2 -16  -9    0.45    0.55
  -2  16  -9    1.39    0.67
   3 -17  -9    2.15    0.77
  -3 -17   9    3.64    0.96
  -3  17   9    2.00    0.80
  -2 -17   9   -0.75    0.62
   2 -17  -9    0.58    0.53
  -2  17   9   -0.10    0.61
  -1 -17   9   19.35    1.68
   1 -17  -9   20.70    1.70
   1  17  -9   19.71    1.70
  -1  17   9   21.65    1.72
   0 -17   9    1.30    0.59
   0 -17  -9    2.23    0.70
   0  17  -9    2.00    0.71
  -1 -17  -9    6.31    1.00
  -1  17  -9    7.26    0.96
  -2 -17  -9    3.62    0.79
  -2  17  -9    3.02    0.73
  -3 -18   9    0.94    0.82
  -3  18   9    1.41    0.74
  -2 -18   9    8.60    1.30
   2 -18  -9    7.40    1.09
  -2  18   9    9.03    1.29
  -1 -18   9   11.55    1.35
   1 -18  -9   11.35    1.29
   1  18  -9   12.67    1.40
   0 -18   9   12.46    1.37
   0 -18  -9   13.53    1.43
   0  18  -9   14.04    1.39
  -1 -18  -9    1.83    0.69
  -1  18  -9    2.14    0.69
  -2 -18  -9    1.46    0.74
  -2  18  -9    0.50    0.55
  -2 -19   9    7.23    1.16
   2 -19  -9    3.73    0.74
  -2  19   9    5.06    1.01
  -1 -19   9    3.08    0.87
   1 -19  -9    3.77    0.83
   1  19  -9    4.19    0.87
   0 -19  -9    2.22    0.78
   0 -19   9    1.67    0.73
   0  19  -9    2.12    0.67
  -1 -19  -9    0.80    0.60
  -1  19  -9    1.21    0.57
  -2 -19  -9    4.55    0.94
  -2 -20   9   11.83    1.52
  -2  20   9   11.85    1.53
  -1 -20   9    3.67    0.93
   1 -20  -9    6.76    1.07
   1  20  -9    4.73    0.98
   0 -20   9   17.33    1.66
   0 -20  -9   18.76    1.70
   0  20  -9   21.28    1.66
  -1 -20  -9   -0.13    0.66
  -1  20  -9    1.79    0.63
  -1 -21   9    0.18    0.62
   1 -21  -9    1.22    0.73
   1  21  -9   -0.14    0.60
   0 -21  -9    1.67    0.84
   0 -21   9    0.80    0.67
   0  21  -9   -0.04    0.59
  -1 -21  -9    9.18    1.31
   4   0 -10   12.70    1.46
  -3   0  10    1.46    0.50
   3   0 -10    1.89    0.62
  -2   0  10   84.22    4.59
   2   0 -10   85.24    4.88
   0   0 -10   35.67    2.17
   0   0 -10   36.16    2.25
  -1   0 -10   94.23    5.23
  -1   0 -10   94.46    5.24
  -2   0 -10    0.97    0.42
  -2   0 -10    1.16    0.50
  -3   0 -10   33.47    2.24
  -4   0 -10    1.67    0.78
   4  -1 -10    7.46    1.21
   4   1 -10    8.13    1.21
   3  -1 -10    0.23    0.55
  -3   1  10    0.48    0.38
   3   1 -10    2.62    0.70
   2  -1 -10   59.17    3.48
  -2   1  10   57.46    3.20
   2   1 -10   55.22    3.46
   0  -1 -10  104.61    6.19
   0  -1 -10  118.17    6.14
   0   1 -10  105.33    6.18
   0   1 -10  122.35    6.17
  -1  -1 -10   23.60    1.62
  -1  -1 -10   24.84    1.61
  -1   1 -10   24.62    1.65
  -1   1 -10   25.00    1.67
  -2  -1 -10    3.99    0.62
  -2   1 -10    4.33    0.63
  -2   1 -10    4.65    0.69
  -3  -1 -10    9.98    1.12
  -3   1 -10   10.09    1.17
  -4  -1 -10    8.97    1.17
  -4   1 -10   11.18    1.32
   4  -2 -10    0.94    0.70
  -4   2  10    1.29    0.56
   4   2 -10    1.18    0.74
   3  -2 -10    0.68    0.61
   3   2 -10    0.60    0.56
  -3   2  10    1.02    0.43
   2  -2 -10   14.28    1.23
  -2   2  10   13.48    1.00
   2   2 -10   14.14    1.30
   1  -2 -10    3.59    0.61
   1  -2 -10    2.17    0.38
   1   2 -10    3.98    0.65
   1   2 -10    0.89    0.37
   0  -2 -10    0.58    0.38
   0  -2 -10    1.86    0.42
   0   2 -10    1.48    0.45
   0   2 -10    0.76    0.38
  -1  -2 -10    4.83    0.63
  -1  -2 -10    4.39    0.65
  -1   2 -10    4.04    0.63
  -1   2 -10    4.10    0.68
  -2  -2 -10    0.45    0.37
  -2  -2 -10    0.31    0.43
  -2   2 -10    0.60    0.44
  -3  -2 -10    3.59    0.70
  -3   2 -10    3.60    0.79
  -4  -2 -10    0.46    0.64
  -4   2 -10    0.26    0.62
   4  -3 -10    5.03    1.02
  -4   3  10    4.21    0.77
   4   3 -10    1.23    0.59
   3  -3 -10    0.29    0.55
  -3   3  10    0.05    0.39
   3   3 -10    0.16    0.49
   2  -3 -10    6.70    0.90
  -2   3  10    5.95    0.67
   2   3 -10    5.98    0.84
   1  -3 -10   15.93    1.17
   1   3 -10   11.40    1.01
   0  -3 -10   29.32    1.77
   0  -3 -10   28.21    1.87
   0   3 -10   25.81    1.85
   0   3 -10   31.20    1.85
  -1  -3 -10    2.47    0.55
  -1  -3 -10    3.31    0.53
  -1   3 -10    2.73    0.55
  -1   3 -10    3.18    0.57
  -2  -3 -10    1.28    0.46
  -2  -3 -10    1.05    0.43
  -2   3 -10    0.72    0.49
  -3  -3 -10    5.22    0.84
  -3   3 -10    3.85    0.77
  -4  -3 -10    2.32    0.75
  -4   3 -10    1.82    0.81
   4  -4 -10   13.56    1.47
  -4   4  10   11.63    1.15
   4   4 -10    6.33    1.07
   3  -4 -10    5.68    0.95
  -3   4  10    5.50    0.75
   3   4 -10    5.38    0.95
   2  -4 -10   28.28    1.96
   2   4 -10   29.09    1.98
  -2   4  10   27.84    1.77
   1  -4 -10   22.72    1.53
  -1   4  10   19.92    1.31
   1   4 -10   20.16    1.51
   0  -4 -10   11.42    0.87
   0  -4 -10   11.63    0.99
   0   4 -10    9.92    0.98
   0   4 -10   11.43    0.94
  -1  -4 -10   32.04    1.89
  -1  -4 -10   29.18    1.98
  -1   4 -10   30.63    1.98
  -1   4 -10   29.82    2.03
  -2  -4 -10    9.99    1.02
  -2  -4 -10   11.96    1.01
  -2   4 -10   10.74    1.10
  -3  -4 -10   11.22    1.14
  -3   4 -10    9.86    1.15
   4  -5 -10    0.33    0.70
  -4   5  10    1.08    0.57
   4   5 -10   -0.25    0.57
   3  -5 -10    0.00    0.28
   3   5 -10    0.05    0.49
  -3   5  10    0.67    0.47
   2  -5 -10    1.37    0.53
  -2   5  10    1.60    0.47
   2   5 -10    1.09    0.52
   1  -5 -10    7.92    0.94
  -1   5  10    9.04    0.78
   1   5 -10   10.08    1.01
   1   5 -10    8.95    0.94
   0  -5 -10    9.31    0.96
   0  -5 -10    8.32    0.74
   0   5 -10    9.43    0.97
  -1  -5 -10    1.62    0.50
  -1  -5 -10    2.19    0.44
  -1   5 -10    2.59    0.55
  -1   5 -10    2.17    0.57
  -2  -5 -10   -0.13    0.38
  -2  -5 -10    0.45    0.41
  -2   5 -10    0.36    0.54
  -3  -5 -10    0.04    0.42
  -3   5 -10    0.09    0.55
   4  -6 -10   10.72    1.44
  -4   6  10   10.16    1.18
  -3   6  10    3.25    0.67
   3   6 -10    3.25    0.75
   2  -6 -10   39.96    2.56
  -2   6  10   39.56    2.37
   2   6 -10   37.75    2.51
   1  -6 -10    0.31    0.40
  -1   6  10    0.89    0.39
   1   6 -10    0.62    0.49
   1   6 -10    0.66    0.40
   0  -6 -10    5.77    0.75
   0   6 -10    5.12    0.76
   0   6 -10    5.92    0.71
  -1  -6 -10   45.60    2.60
  -1  -6 -10   46.19    2.74
  -1   6 -10   45.01    2.70
  -1   6 -10   42.15    2.75
  -2  -6 -10    2.66    0.57
  -2  -6 -10    2.92    0.56
  -2   6 -10    2.45    0.69
  -3   6 -10   16.80    1.50
  -4  -7  10    5.01    1.05
   4  -7 -10    5.21    1.13
  -4   7  10    7.42    1.03
   3  -7 -10    0.55    0.50
  -3   7  10    1.10    0.57
   3   7 -10    1.69    0.69
   2  -7 -10   20.05    1.51
   2   7 -10   19.54    1.55
  -2   7  10   17.38    1.34
   1  -7 -10   66.63    3.92
  -1   7  10   65.75    3.76
   1   7 -10   69.42    3.94
   0  -7 -10   56.56    3.38
   0   7 -10   55.08    3.36
   0   7 -10   60.17    3.35
  -1  -7 -10   39.69    2.46
  -1  -7 -10   39.27    2.30
  -1   7 -10   38.81    2.40
  -1   7 -10   39.23    2.49
  -2  -7 -10    1.42    0.47
  -2  -7 -10    0.25    0.42
  -2   7 -10    1.41    0.60
  -3  -7 -10    2.70    0.67
  -3   7 -10    4.53    0.83
  -4  -8  10    0.77    0.65
   4  -8 -10    1.09    0.78
  -4   8  10    0.79    0.63
   3  -8 -10   26.37    1.98
   3   8 -10   24.57    1.96
  -3   8  10   24.86    1.81
   2  -8 -10    2.27    0.64
  -2   8  10    2.02    0.58
   2   8 -10    1.49    0.62
   1  -8 -10   28.70    1.87
   1   8 -10   28.18    1.80
  -1   8  10   24.67    1.65
   1   8 -10   21.06    1.71
   0  -8 -10   14.06    1.23
   0   8 -10   13.78    1.21
   0   8 -10   15.99    1.18
  -1  -8 -10    0.61    0.33
  -1  -8 -10    0.64    0.43
  -1   8 -10   -0.10    0.37
  -1   8 -10    0.42    0.52
  -2  -8 -10   39.67    2.48
  -2  -8 -10   44.98    2.60
  -2   8 -10   38.74    2.65
  -3  -8 -10   -0.22    0.47
  -3   8 -10   -0.46    0.53
  -4  -9  10    4.45    1.06
  -4   9  10    7.81    1.10
   3  -9 -10   -0.08    0.54
  -3   9  10    0.63    0.57
   2  -9 -10   24.68    1.80
  -2   9  10   22.65    1.64
   2   9 -10   24.18    1.76
   1  -9 -10   90.33    4.88
  -1   9  10   85.53    4.70
   1   9 -10   72.37    4.78
   1   9 -10   88.94    4.84
   0  -9 -10   63.29    3.89
   0   9 -10   63.95    3.86
   0   9 -10   73.35    3.88
  -1  -9 -10    2.79    0.60
  -1   9 -10    3.69    0.62
  -1   9 -10    5.58    0.83
  -2  -9 -10    1.32    0.47
  -2  -9 -10    1.36    0.55
  -2   9 -10    1.71    0.66
  -3  -9 -10   11.77    1.17
  -3   9 -10   10.94    1.27
  -4 -10  10    5.38    1.07
  -4  10  10    4.25    0.92
  -3 -10  10   10.51    1.30
   3 -10 -10    9.62    1.21
  -3  10  10   10.99    1.12
   2 -10 -10    0.72    0.55
   2  10 -10    1.20    0.54
  -2  10  10    0.56    0.52
   1 -10 -10   23.95    1.78
   1  10 -10   26.56    1.79
   1  10 -10   21.24    1.70
  -1  10  10   24.36    1.65
   0 -10 -10   16.37    1.37
   0  10 -10   20.96    1.40
   0  10 -10   16.16    1.38
  -1 -10 -10    4.37    0.74
  -1  10 -10    4.96    0.68
  -1  10 -10    4.00    0.73
  -2 -10 -10    9.90    0.91
  -2 -10 -10   10.30    1.06
  -2  10 -10    8.09    1.07
  -3 -10 -10    1.28    0.61
  -3  10 -10    1.15    0.68
  -4 -11  10    0.67    0.72
  -4  11  10    2.35    0.81
  -3 -11  10    0.49    0.61
   3 -11 -10   -0.23    0.57
  -3  11  10    0.53    0.64
   2 -11 -10   15.60    1.33
  -2 -11  10   13.05    1.40
  -2  11  10   13.95    1.26
   1 -11 -10   17.85    1.46
  -1  11  10   20.19    1.43
   1  11 -10   16.89    1.44
   1  11 -10   18.68    1.48
   0 -11 -10   24.01    1.80
   0  11 -10   25.50    1.76
   0  11 -10   26.08    1.75
  -1 -11 -10    0.63    0.50
   1 -11  10   -0.01    0.38
  -1  11 -10    0.73    0.49
  -2 -11 -10    1.88    0.58
  -2  11 -10    1.14    0.62
  -3 -11 -10    7.98    0.98
  -3  11 -10    6.88    1.07
  -4 -12  10    1.89    0.81
  -4  12  10    1.27    0.74
  -3 -12  10    9.09    1.31
   3 -12 -10   11.08    1.30
  -3  12  10   11.35    1.33
  -2 -12  10    1.51    0.68
   2 -12 -10    0.39    0.54
  -2  12  10   -0.11    0.56
  -1 -12  10    3.08    0.76
   1 -12 -10    2.63    0.63
  -1  12  10    3.23    0.67
   1  12 -10    3.03    0.69
   0 -12 -10    8.41    1.03
   0 -12  10    8.27    1.00
   0  12 -10    9.86    1.02
  -1 -12 -10    0.32    0.50
  -1  12 -10    1.27    0.52
  -2 -12 -10    7.31    0.96
  -2  12 -10    8.67    1.06
  -3 -12 -10    0.36    0.56
  -3 -12 -10    0.76    0.71
  -3  12 -10    0.10    0.62
  -3 -13  10   -0.08    0.70
   3 -13 -10    0.24    0.60
  -3  13  10    0.38    0.66
   2 -13 -10    0.82    0.58
  -2 -13  10    0.75    0.59
  -2  13  10    0.98    0.66
  -1 -13  10    0.47    0.56
   1 -13 -10    0.39    0.47
  -1  13  10    0.71    0.52
   1  13 -10   -0.54    0.44
   0 -13 -10    1.38    0.56
   0 -13  10    0.82    0.55
   0  13 -10    0.60    0.49
  -1 -13 -10    1.72    0.57
  -1  13 -10    2.32    0.61
  -2 -13 -10    2.68    0.71
  -2  13 -10    1.67    0.72
  -3 -13 -10    1.30    0.64
  -3  13 -10    0.82    0.73
  -3 -14  10   24.05    2.06
   3 -14 -10   25.20    1.97
  -3  14  10   24.51    1.91
  -2 -14  10    1.45    0.66
   2 -14 -10    0.98    0.58
  -2  14  10    1.21    0.68
  -1 -14  10   11.08    1.26
   1 -14 -10    9.61    1.13
   1  14 -10    9.59    1.14
   0 -14 -10   21.33    1.69
   0 -14  10   22.16    1.74
   0  14 -10   24.03    1.68
  -1 -14 -10    2.78    0.68
  -1  14 -10    3.01    0.71
  -2 -14 -10   32.17    2.36
  -2  14 -10   36.25    2.40
   3 -15 -10    0.74    0.68
  -3 -15  10    0.54    0.75
  -3  15  10    0.47    0.69
   2 -15 -10    4.76    0.93
  -2 -15  10    3.88    0.90
  -2  15  10    4.14    0.86
   1 -15 -10    6.73    0.99
  -1 -15  10    5.53    0.93
   1  15 -10    6.47    0.97
   0 -15 -10   15.36    1.42
   0 -15  10   18.68    1.53
   0  15 -10   17.93    1.47
  -1 -15 -10    3.09    0.77
  -1  15 -10    2.48    0.65
  -2 -15 -10    1.91    0.68
  -2  15 -10    1.97    0.71
   3 -16 -10   11.40    1.37
  -3 -16  10    9.65    1.40
  -3  16  10   12.55    1.46
   2 -16 -10   11.39    1.32
  -2 -16  10   11.97    1.39
  -2  16  10    7.69    1.12
  -1 -16  10    2.40    0.76
   1 -16 -10    3.58    0.76
   1  16 -10    2.71    0.74
   0 -16  10    1.83    0.64
   0 -16 -10    3.57    0.74
   0  16 -10    3.35    0.75
  -1 -16 -10    9.86    1.21
  -1  16 -10   11.44    1.16
  -2 -16 -10   12.59    1.41
  -2  16 -10   12.22    1.32
   3 -17 -10    0.19    0.62
  -3 -17  10   -0.13    0.78
  -3  17  10    0.70    0.78
   2 -17 -10    8.43    1.18
  -2 -17  10    6.33    1.09
  -2  17  10    5.50    1.06
  -1 -17  10    6.90    1.07
   1 -17 -10    8.00    1.07
   1  17 -10    7.86    1.08
   0 -17 -10   13.55    1.43
   0 -17  10   12.40    1.38
   0  17 -10   17.19    1.47
  -1 -17 -10    0.94    0.69
  -1  17 -10    1.46    0.65
  -2 -17 -10   -0.19    0.63
  -2  17 -10   -0.06    0.62
  -2 -18  10    5.64    1.12
   2 -18 -10    6.58    1.07
  -2  18  10    8.87    1.25
  -1 -18  10    0.75    0.72
   1 -18 -10    0.96    0.68
   1  18 -10    0.27    0.67
   0 -18 -10    1.58    0.71
   0 -18  10    1.97    0.74
   0  18 -10    1.56    0.73
  -1 -18 -10    7.56    1.17
  -1  18 -10   10.17    1.10
   2 -19 -10    0.73    0.71
  -2 -19  10   -0.72    0.72
  -2  19  10    0.61    0.70
  -1 -19  10    6.47    1.14
   1 -19 -10    6.56    1.10
   1  19 -10    6.20    1.04
   0 -19  10    0.60    0.63
   0 -19 -10    1.02    0.63
   0  19 -10    2.51    0.79
  -1 -19 -10   -0.68    0.56
  -1  19 -10    0.05    0.59
  -1 -20  10   -0.38    0.66
   1 -20 -10    0.29    0.65
   1  20 -10    0.53    0.65
   0 -20  10   -0.20    0.62
   0 -20 -10    0.19    0.61
   0  20 -10    1.11    0.71
   4   0 -11    0.22    0.68
   3   0 -11   -0.50    0.52
   2   0 -11    0.52    0.49
   1   0 -11    0.17    0.38
   1   0 -11   -0.10    0.28
   0   0 -11    0.20    0.38
   0   0 -11   -0.17    0.33
  -1   0 -11   -0.07    0.39
  -1   0 -11   -0.46    0.38
  -2   0 -11    0.09    0.26
  -3   0 -11    0.09    0.59
   4  -1 -11    7.24    1.18
   3  -1 -11    0.77    0.63
   3   1 -11    0.33    0.59
   2  -1 -11   14.64    1.38
   2   1 -11   15.40    1.36
   1  -1 -11    0.42    0.30
   1  -1 -11    1.47    0.51
   1   1 -11    0.99    0.52
   1   1 -11    1.01    0.37
   0  -1 -11    0.15    0.38
   0  -1 -11    0.46    0.36
   0   1 -11    0.64    0.41
   0   1 -11    0.38    0.36
  -1  -1 -11   32.68    2.04
  -1  -1 -11   30.65    2.06
  -1   1 -11   34.01    2.09
  -1   1 -11   29.36    2.04
  -2  -1 -11    0.52    0.44
  -2  -1 -11    0.58    0.45
  -2   1 -11    1.22    0.57
  -3  -1 -11    8.39    1.08
  -3   1 -11    9.43    1.10
   4  -2 -11    3.67    0.97
   4   2 -11    1.96    0.72
   3  -2 -11    7.13    1.09
   3   2 -11    7.48    1.08
   2  -2 -11    0.87    0.51
  -2   2  11    0.51    0.48
   2   2 -11    0.64    0.55
   1  -2 -11   41.75    2.60
   1   2 -11   40.43    2.60
   0  -2 -11    0.32    0.44
   0  -2 -11    0.48    0.36
   0   2 -11    0.91    0.40
   0   2 -11    0.22    0.39
  -1  -2 -11    8.64    0.89
  -1  -2 -11    7.77    0.91
  -1   2 -11    8.34    0.94
  -1   2 -11    7.27    0.87
  -2  -2 -11    9.26    1.00
  -2  -2 -11    9.04    0.96
  -2   2 -11    8.54    1.00
  -3  -2 -11    0.89    0.56
  -3   2 -11    0.83    0.67
   4  -3 -11   25.08    2.16
   4   3 -11   25.66    2.16
   3  -3 -11   19.23    1.69
  -3   3  11   19.45    1.53
   3   3 -11   21.17    1.69
   2  -3 -11   96.50    5.37
   2   3 -11   96.94    5.37
  -2   3  11   88.02    5.06
   1  -3 -11    3.32    0.67
   1   3 -11    2.03    0.60
   1   3 -11    0.65    0.39
   0  -3 -11    1.16    0.39
   0  -3 -11    0.74    0.48
   0   3 -11    0.71    0.48
   0   3 -11    1.88    0.43
  -1  -3 -11   82.74    4.64
  -1  -3 -11   81.96    4.69
  -1   3 -11   83.78    4.71
  -2  -3 -11    9.24    1.02
  -2  -3 -11   11.85    1.06
  -2   3 -11   13.15    1.16
  -3  -3 -11   21.36    1.63
  -3   3 -11   20.92    1.71
   4  -4 -11    1.40    0.80
   4   4 -11    1.23    0.73
   3  -4 -11    5.73    0.97
   3   4 -11    5.08    0.90
  -3   4  11    3.82    0.68
   2  -4 -11   12.81    1.31
   2   4 -11   13.20    1.32
  -2   4  11   12.40    1.00
   1  -4 -11   38.85    2.49
   1   4 -11   38.59    2.49
   0  -4 -11    5.44    0.76
   0  -4 -11    5.50    0.70
   0   4 -11    4.96    0.73
   0   4 -11    5.80    0.71
  -1  -4 -11    6.78    0.77
  -1  -4 -11    6.58    0.81
  -1   4 -11    6.07    0.87
  -1   4 -11    7.66    0.88
  -2  -4 -11    5.85    0.80
  -2  -4 -11    5.71    0.80
  -2   4 -11    5.63    0.89
  -3  -4 -11    0.50    0.44
  -3   4 -11    3.22    0.79
   4  -5 -11    6.42    1.21
   4   5 -11    6.38    1.15
  -4   5  11    7.09    0.98
   3  -5 -11   58.33    3.57
  -3   5  11   55.01    3.27
   3   5 -11   52.39    3.45
   2  -5 -11   33.78    2.12
   2   5 -11   29.75    2.06
  -2   5  11   26.73    1.83
   1  -5 -11   18.24    1.39
   1   5 -11   21.17    1.43
   1   5 -11   12.58    1.22
   0  -5 -11   33.76    2.21
   0   5 -11   35.89    2.13
   0   5 -11   30.95    2.18
  -1  -5 -11   42.93    2.59
  -1  -5 -11   41.47    2.44
  -1   5 -11   36.42    2.52
  -1   5 -11   41.17    2.52
  -2  -5 -11   57.65    3.38
  -2  -5 -11   54.76    3.30
  -2   5 -11   56.11    3.46
  -3  -5 -11    2.98    0.64
  -3   5 -11    4.08    0.83
   4  -6 -11   -0.40    0.70
  -4   6  11    0.63    0.62
   4   6 -11    1.58    0.81
   3  -6 -11    0.44    0.62
  -3   6  11    0.82    0.53
   3   6 -11    0.27    0.59
   2  -6 -11    6.43    0.93
   2   6 -11    6.56    0.91
  -2   6  11    6.88    0.79
   1  -6 -11    1.83    0.56
   1   6 -11    0.71    0.42
   1   6 -11    1.67    0.58
   0  -6 -11   14.99    1.31
   0   6 -11   14.87    1.23
  -1  -6 -11   11.06    0.91
  -1  -6 -11    9.49    1.04
  -1   6 -11   11.14    1.12
  -1   6 -11    9.75    1.00
  -2  -6 -11   -0.06    0.42
  -2  -6 -11   -0.19    0.45
  -2   6 -11   -0.29    0.59
  -3  -6 -11    5.46    0.88
  -3   6 -11    6.40    1.00
   4  -7 -11    0.71    0.79
  -4   7  11    0.13    0.58
   3  -7 -11   32.84    2.34
  -3   7  11   31.51    2.13
   3   7 -11   32.06    2.31
   2  -7 -11    3.84    0.78
  -2   7  11    2.08    0.56
   2   7 -11    2.93    0.71
   1  -7 -11   27.49    1.83
   1   7 -11   19.96    1.65
   1   7 -11   25.39    1.75
   0  -7 -11   19.85    1.60
   0   7 -11   22.23    1.62
   0   7 -11   23.97    1.56
  -1  -7 -11    0.34    0.46
  -1   7 -11    0.44    0.44
  -1   7 -11    0.82    0.55
  -2  -7 -11   25.00    1.68
  -2  -7 -11   24.52    1.77
  -2   7 -11   23.76    1.85
  -3  -7 -11    0.74    0.58
  -3   7 -11    0.12    0.69
   4  -8 -11    4.13    1.05
  -4  -8  11    2.36    0.81
  -4   8  11    3.06    0.81
   3  -8 -11   -0.53    0.44
  -3   8  11    1.23    0.62
   3   8 -11    1.61    0.68
   2  -8 -11    3.05    0.77
   2   8 -11    2.69    0.73
  -2   8  11    2.85    0.62
   1  -8 -11   15.25    1.37
   1   8 -11   18.49    1.44
   0  -8 -11    2.29    0.62
   0   8 -11    3.60    0.65
   0   8 -11    4.04    0.64
  -1  -8 -11   15.62    1.32
  -1   8 -11   16.73    1.32
  -1   8 -11   16.68    1.36
  -2  -8 -11    0.61    0.52
  -2  -8 -11    0.34    0.43
  -2   8 -11    0.04    0.55
  -3  -8 -11    1.13    0.58
  -3   8 -11    1.58    0.76
  -4  -9  11   -0.05    0.70
   4  -9 -11    0.06    0.77
  -4   9  11    0.34    0.64
   3  -9 -11    0.17    0.33
   3   9 -11    0.52    0.61
  -3   9  11    0.84    0.61
   2  -9 -11    0.67    0.57
   2   9 -11    0.32    0.51
  -2   9  11    0.35    0.49
   1  -9 -11    1.14    0.53
   1   9 -11   -0.03    0.47
   1   9 -11    1.42    0.56
   0  -9 -11    2.71    0.67
   0   9 -11    2.38    0.62
   0   9 -11    3.60    0.62
  -1  -9 -11    2.70    0.60
  -1   9 -11    2.25    0.57
  -1   9 -11    3.32    0.72
  -2  -9 -11    3.26    0.72
  -2   9 -11    1.82    0.68
  -3  -9 -11    0.63    0.57
  -3   9 -11   -0.38    0.61
  -4 -10  11    0.51    0.73
  -4  10  11    0.33    0.66
   3 -10 -11   -0.12    0.24
  -3 -10  11    0.67    0.72
  -3  10  11    0.03    0.54
   2 -10 -11   10.12    1.20
  -2  10  11    9.67    1.03
   2  10 -11   12.08    1.26
   1 -10 -11   18.74    1.50
   1  10 -11   18.32    1.47
   1  10 -11   13.85    1.32
   0 -10 -11   27.95    2.04
   0  10 -11   30.17    2.07
   0  10 -11   32.03    2.03
  -1 -10 -11    4.28    0.79
  -1  10 -11    5.30    0.77
  -1  10 -11    4.69    0.73
  -2 -10 -11    0.30    0.53
  -2  10 -11    1.67    0.72
  -3 -10 -11    3.69    0.76
  -3  10 -11    1.67    0.75
  -3 -11  11   28.92    2.23
  -3  11  11   27.33    2.02
   2 -11 -11    0.91    0.61
  -2  11  11    0.65    0.55
   1 -11 -11    4.38    0.85
   1  11 -11    2.74    0.74
   1  11 -11    4.89    0.83
   0 -11 -11   22.80    1.75
   0  11 -11   22.63    1.75
   0  11 -11   25.86    1.74
  -1 -11 -11    2.96    0.70
  -1  11 -11    3.71    0.73
  -2 -11 -11   27.32    2.00
  -2  11 -11   27.75    2.09
  -3  11 -11    0.28    0.67
   3 -12 -11   -0.09    0.67
  -3 -12  11    0.02    0.63
  -3  12  11    0.84    0.68
   2 -12 -11   18.38    1.61
  -2 -12  11   18.92    1.63
  -2  12  11   16.57    1.44
   1 -12 -11    7.70    1.07
   1  12 -11    9.05    1.14
   0 -12 -11   25.01    1.91
   0  12 -11   28.74    1.87
  -1 -12 -11    0.29    0.52
  -1  12 -11    0.53    0.50
  -2 -12 -11    1.62    0.65
  -2  12 -11    0.94    0.63
  -3 -13  11   15.03    1.74
   3 -13 -11   16.53    1.75
  -3  13  11   17.01    1.48
   2 -13 -11    8.02    1.12
  -2 -13  11    6.74    1.09
  -2  13  11    7.33    1.02
   1 -13 -11    3.14    0.76
  -1 -13  11    2.71    0.76
   1  13 -11    3.00    0.76
   0 -13  11    8.61    1.12
   0 -13 -11   10.71    1.21
   0  13 -11   12.20    1.09
  -1 -13 -11   13.00    1.38
  -1  13 -11   16.41    1.38
  -2 -13 -11   16.60    1.52
  -2  13 -11   16.18    1.49
   3 -14 -11    0.29    0.69
  -3 -14  11    0.84    0.72
  -3  14  11    0.22    0.70
   2 -14 -11    1.77    0.70
  -2 -14  11    1.69    0.73
  -2  14  11    1.25    0.63
   1 -14 -11    1.33    0.61
  -1 -14  11    1.62    0.73
   1  14 -11    2.31    0.73
   0 -14  11    0.86    0.59
   0 -14 -11    1.45    0.60
   0  14 -11    1.83    0.60
  -1 -14 -11    0.16    0.52
  -1  14 -11    1.14    0.55
  -2 -14 -11    1.80    0.69
  -2  14 -11    3.10    0.74
   3 -15 -11    1.69    0.79
  -3 -15  11    0.00    0.72
  -3  15  11    0.85    0.69
   2 -15 -11   15.03    1.58
  -2 -15  11   17.30    1.71
  -2  15  11   13.82    1.35
  -1 -15  11    0.56    0.57
   1 -15 -11    0.61    0.59
   1  15 -11    0.11    0.58
   0 -15  11    0.42    0.59
   0 -15 -11    0.45    0.55
   0  15 -11    0.04    0.48
  -1 -15 -11   13.79    1.48
  -1  15 -11   17.54    1.45
  -2 -15 -11    0.34    0.66
  -2  15 -11    0.02    0.63
  -2 -16  11    2.15    0.84
   2 -16 -11    3.34    0.87
  -2  16  11    1.53    0.71
  -1 -16  11    0.84    0.68
   1 -16 -11   -0.07    0.52
   1  16 -11   -0.66    0.56
   0 -16  11    9.99    1.28
   0 -16 -11   13.15    1.42
   0  16 -11   13.31    1.32
  -1 -16 -11    0.60    0.66
  -1  16 -11    1.18    0.58
  -2 -17  11    1.24    0.74
   2 -17 -11    2.46    0.78
  -2  17  11    1.51    0.73
   1 -17 -11    0.45    0.68
  -1 -17  11    0.08    0.58
   1  17 -11    0.29    0.66
   0 -17  11    0.17    0.61
   0 -17 -11    1.18    0.64
   0  17 -11    0.52    0.65
  -1 -17 -11   -0.29    0.61
  -1  17 -11    0.14    0.59
   2 -18 -11    4.73    1.04
  -2 -18  11    4.55    1.04
  -2  18  11    4.39    0.94
  -1 -18  11    7.09    1.19
   1 -18 -11    8.82    1.20
   1  18 -11    8.89    1.18
   0 -18  11   19.31    1.77
   0 -18 -11   21.25    1.80
   0  18 -11   21.94    1.79
  -1 -18 -11    3.34    0.84
  -1  18 -11    3.68    0.76
  -1 -19  11    0.39    0.73
   1 -19 -11    1.25    0.73
   1  19 -11    0.86    0.66
   0 -19 -11    0.20    0.66
   0 -19  11   -0.28    0.61
   0  19 -11    0.08    0.66
   4   0 -12   14.59    1.69
   3   0 -12    5.12    0.98
   2   0 -12    6.34    1.00
   1   0 -12   17.36    1.39
   0   0 -12   21.38    1.70
   0   0 -12   24.75    1.56
  -1   0 -12   41.91    2.62
  -1   0 -12   40.53    2.58
  -2   0 -12    5.14    0.82
  -3   0 -12    0.64    0.66
   4   1 -12   16.63    1.82
   3  -1 -12    1.95    0.73
   3   1 -12    3.08    0.87
   2  -1 -12    1.89    0.63
   2   1 -12    1.43    0.64
   1  -1 -12   88.95    5.25
   1   1 -12   95.00    5.30
   0  -1 -12    9.18    1.07
   0  -1 -12   11.13    0.90
   0   1 -12   10.70    0.94
   0   1 -12    9.32    1.05
  -1  -1 -12   38.30    2.50
  -1  -1 -12   39.96    2.46
  -1   1 -12   39.14    2.49
  -1   1 -12   39.22    2.50
  -2  -1 -12    8.06    0.94
  -2   1 -12    4.76    0.75
  -3  -1 -12    0.04    0.55
  -3   1 -12    0.02    0.64
   4   2 -12    7.51    1.26
   3  -2 -12    6.90    1.14
   3   2 -12    6.66    1.04
   2  -2 -12    1.38    0.58
   2   2 -12    0.32    0.53
   1  -2 -12    3.01    0.71
   1   2 -12    1.96    0.66
   1   2 -12    2.73    0.51
   0  -2 -12   29.05    1.74
   0  -2 -12   24.93    1.91
   0   2 -12   24.95    1.91
   0   2 -12   29.09    1.79
  -1  -2 -12   16.35    1.36
  -1  -2 -12   15.37    1.27
  -1   2 -12   16.46    1.35
  -1   2 -12   15.74    1.36
  -2  -2 -12    3.99    0.74
  -2   2 -12    4.77    0.85
  -3  -2 -12    0.15    0.59
  -3   2 -12    0.19    0.64
   4  -3 -12    0.80    0.73
   4   3 -12    0.35    0.69
   3  -3 -12    3.58    0.86
   3   3 -12    3.07    0.81
   2  -3 -12    5.21    0.87
   2   3 -12    4.93    0.88
   1  -3 -12    2.41    0.65
   1   3 -12    3.77    0.73
   1   3 -12    2.40    0.53
   0  -3 -12   25.73    1.98
   0   3 -12   31.48    2.09
   0   3 -12   31.55    1.91
  -1  -3 -12   -0.24    0.43
  -1  -3 -12    0.04    0.48
  -1   3 -12    0.37    0.45
  -1   3 -12    0.38    0.48
  -2  -3 -12    2.67    0.61
  -2  -3 -12    1.94    0.56
  -2   3 -12    1.95    0.69
  -3  -3 -12    2.02    0.58
  -3   3 -12    2.95    0.77
   4  -4 -12    1.07    0.76
   4   4 -12    0.96    0.76
   3  -4 -12    0.25    0.67
   3   4 -12    0.53    0.60
   2  -4 -12    1.61    0.66
   2   4 -12    1.30    0.59
   1  -4 -12    0.60    0.52
   1   4 -12    0.88    0.54
   1   4 -12    0.32    0.39
   0  -4 -12    5.89    0.88
   0   4 -12    5.55    0.70
   0   4 -12    5.08    0.84
  -1  -4 -12    0.64    0.52
  -1  -4 -12    0.01    0.42
  -1   4 -12    0.12    0.48
  -1   4 -12    0.10    0.17
  -2  -4 -12   -0.27    0.46
  -2  -4 -12    0.17    0.42
  -2   4 -12    1.04    0.60
  -3  -4 -12    2.54    0.69
  -3   4 -12    0.64    0.67
   4  -5 -12    4.04    1.10
   4   5 -12    3.48    1.01
   3  -5 -12   18.99    1.75
   3   5 -12   16.58    1.59
   2  -5 -12    1.67    0.63
  -2   5  12    1.93    0.71
   2   5 -12    2.39    0.70
   1  -5 -12   37.79    2.37
   1   5 -12   28.39    2.11
   1   5 -12   37.57    2.31
   0  -5 -12    1.41    0.59
   0   5 -12    1.57    0.50
   0   5 -12    1.07    0.56
  -1  -5 -12   17.66    1.48
  -1   5 -12   17.92    1.44
  -1   5 -12   18.76    1.51
  -2  -5 -12    9.40    1.05
  -2  -5 -12    8.17    0.96
  -2   5 -12    9.65    1.18
  -3  -5 -12    1.17    0.65
  -3   5 -12    2.69    0.85
   4  -6 -12    4.42    1.12
   4   6 -12    4.68    1.04
   3  -6 -12    4.43    0.94
   3   6 -12    5.19    0.99
  -3   6  12    3.90    1.14
   2  -6 -12    3.24    0.81
  -2   6  12    3.92    0.64
   2   6 -12    4.74    0.83
   1  -6 -12    0.54    0.52
   1   6 -12    0.34    0.42
   1   6 -12    0.76    0.59
   0  -6 -12   12.29    1.26
   0   6 -12   12.14    1.23
   0   6 -12   13.02    1.05
  -1  -6 -12   15.98    1.36
  -1   6 -12   13.14    1.24
  -1   6 -12   15.75    1.31
  -2  -6 -12    8.81    1.05
  -2  -6 -12    9.03    0.96
  -2   6 -12    7.22    1.04
  -3  -6 -12    1.79    0.69
  -3   6 -12    1.14    0.71
   4  -7 -12    1.90    0.90
   3  -7 -12    0.41    0.70
   3   7 -12    0.21    0.68
  -3   7  12    0.85    0.57
   2  -7 -12   17.18    1.52
   2   7 -12   16.93    1.48
  -2   7  12   13.14    1.14
   1  -7 -12   42.60    2.56
   1   7 -12   40.06    2.49
   1   7 -12   30.70    2.28
   0  -7 -12   19.28    1.51
   0   7 -12   20.87    1.54
   0   7 -12   16.60    1.33
  -1  -7 -12    2.25    0.63
  -1   7 -12    1.87    0.59
  -1   7 -12    3.59    0.70
  -2  -7 -12    1.33    0.59
  -2  -7 -12    1.18    0.57
  -2   7 -12    0.96    0.70
  -3  -7 -12    3.33    0.78
  -3   7 -12    3.78    0.95
   3  -8 -12   16.28    1.75
   3   8 -12   17.47    1.74
  -3   8  12   18.20    1.47
   2  -8 -12    0.36    0.62
  -2   8  12    0.32    0.46
   2   8 -12    0.93    0.60
   1  -8 -12    0.77    0.57
   1   8 -12    0.60    0.52
   1   8 -12    0.00    0.45
   0  -8 -12   35.64    2.46
   0   8 -12   38.53    2.35
   0   8 -12   37.53    2.45
  -1  -8 -12   15.25    1.41
  -1   8 -12   16.59    1.42
  -1   8 -12   15.47    1.31
  -2  -8 -12   13.16    1.30
  -2   8 -12   10.91    1.28
   3  -9 -12    3.47    0.87
  -3   9  12    2.94    0.72
   3   9 -12    3.01    0.81
   2  -9 -12   28.36    1.96
   2   9 -12   27.30    1.96
  -2   9  12   20.34    1.62
   1  -9 -12    4.47    0.82
   1   9 -12    2.80    0.62
   1   9 -12    3.73    0.74
   0  -9 -12   62.69    3.97
   0   9 -12   65.39    3.92
   0   9 -12   69.78    3.86
  -1  -9 -12    0.52    0.50
  -1   9 -12    0.37    0.48
  -1   9 -12   -0.17    0.46
  -2  -9 -12    3.65    0.78
  -2   9 -12    1.93    0.71
   3 -10 -12    3.74    0.93
  -3  10  12    2.19    0.70
   2 -10 -12    1.17    0.69
   2  10 -12    0.44    0.56
  -2  10  12    0.95    0.56
   1 -10 -12    4.74    0.87
   1  10 -12    3.59    0.74
   1  10 -12    3.50    0.74
   0 -10 -12   10.48    1.23
   0  10 -12   12.80    1.28
   0  10 -12   13.50    1.19
  -1 -10 -12    8.27    1.05
  -1  10 -12    6.60    0.92
  -2 -10 -12    0.53    0.58
  -2  10 -12    1.95    0.77
   3 -11 -12    4.95    1.06
  -3 -11  12    3.96    0.93
  -3  11  12    5.02    0.87
   2 -11 -12    0.80    0.61
   2  11 -12    0.41    0.58
  -2  11  12    1.30    0.62
   1 -11 -12   -0.08    0.50
   1  11 -12    0.53    0.51
   1  11 -12    0.46    0.48
   0 -11 -12    9.37    1.13
   0  11 -12    9.15    1.01
   0  11 -12    9.98    1.09
  -1 -11 -12   -0.48    0.52
  -1  11 -12   -0.21    0.54
  -2 -11 -12    0.72    0.57
  -2  11 -12   -0.19    0.57
   3 -12 -12    0.95    0.77
  -3 -12  12    2.79    0.95
  -3  12  12    1.27    0.68
   2 -12 -12   -0.39    0.59
  -2 -12  12    1.12    0.72
  -2  12  12   -0.06    0.54
   1 -12 -12   13.39    1.45
   1  12 -12   12.36    1.32
   0 -12 -12    1.05    0.57
   0  12 -12    0.01    0.50
  -1 -12 -12    1.86    0.67
  -1  12 -12    0.80    0.61
  -2 -12 -12    4.00    0.85
  -2  12 -12    6.80    1.05
   3 -13 -12    0.90    0.53
  -3 -13  12    1.55    0.79
  -3  13  12    0.01    0.63
   2 -13 -12   10.88    1.32
  -2 -13  12    9.97    1.31
  -2  13  12    9.14    1.13
  -1 -13  12   -0.05    0.58
   1 -13 -12    0.14    0.54
   1  13 -12   -0.26    0.53
   0 -13  12    6.00    0.96
   0 -13 -12    6.32    1.01
   0  13 -12    7.52    0.96
  -1 -13 -12    1.73    0.66
  -1  13 -12    2.59    0.67
  -2 -13 -12    0.59    0.65
  -2  13 -12    0.90    0.63
   2 -14 -12    2.75    0.80
  -2 -14  12    2.28    0.82
  -2  14  12    3.96    0.86
   1 -14 -12    1.84    0.75
  -1 -14  12    2.14    0.80
   1  14 -12    1.63    0.70
   0 -14  12    1.61    0.62
   0 -14 -12    0.61    0.59
   0  14 -12    0.43    0.53
  -1 -14 -12    4.81    0.91
  -1  14 -12    6.31    0.89
   2 -15 -12   18.23    1.67
  -2 -15  12   16.22    1.74
  -2  15  12   17.64    1.54
   1 -15 -12    3.89    0.88
  -1 -15  12    4.40    0.90
   1  15 -12    4.53    0.90
   0 -15  12   12.66    1.37
   0 -15 -12   11.08    1.32
   0  15 -12   14.39    1.27
  -1 -15 -12    0.76    0.64
  -1  15 -12    1.75    0.67
  -2 -16  12    3.49    0.94
   2 -16 -12    5.08    0.98
  -2  16  12    3.98    0.84
   1 -16 -12    1.34    0.77
  -1 -16  12    0.97    0.74
   1  16 -12    0.01    0.62
   0 -16 -12    3.27    0.86
   0 -16  12    2.48    0.75
   0  16 -12    1.53    0.71
  -1 -16 -12   11.69    1.42
  -1  16 -12   12.79    1.27
   1 -17 -12   14.23    1.57
  -1 -17  12   10.29    1.44
   1  17 -12   17.26    1.63
   0 -17  12    2.00    0.74
   0 -17 -12    2.30    0.77
   0  17 -12    1.70    0.74
   4   0 -13   -0.33    0.70
   3   0 -13    0.70    0.63
   2   0 -13   -0.02    0.51
   1   0 -13   -0.18    0.55
   0   0 -13    0.22    0.55
   0   0 -13   -0.02    0.35
  -1   0 -13    0.39    0.54
  -1   0 -13    0.69    0.52
  -2   0 -13   -0.39    0.57
   4  -1 -13    0.95    0.80
   4   1 -13    1.38    0.88
   3  -1 -13    3.60    0.91
   3   1 -13    3.63    0.92
   2  -1 -13    0.73    0.58
   2   1 -13    0.02    0.54
   1  -1 -13    2.92    0.73
   1   1 -13    2.78    0.72
   0  -1 -13    1.44    0.65
   0   1 -13    1.92    0.68
   0   1 -13    2.31    0.51
  -1  -1 -13    0.37    0.49
  -1  -1 -13    0.74    0.53
  -1   1 -13    0.12    0.48
  -1   1 -13    0.41    0.53
  -2  -1 -13    2.79    0.73
  -2   1 -13    1.65    0.65
   3  -2 -13   23.15    2.06
   3   2 -13   24.02    2.05
   2  -2 -13    1.65    0.72
   2   2 -13    1.30    0.65
   1  -2 -13   51.40    3.22
   1   2 -13   58.35    3.32
   1   2 -13   46.30    2.95
   0  -2 -13    0.22    0.48
   0   2 -13    0.61    0.58
   0   2 -13    1.28    0.45
  -1  -2 -13    8.89    0.97
  -1  -2 -13    5.60    0.89
  -1   2 -13    8.09    1.00
  -1   2 -13    7.09    0.97
  -2  -2 -13   22.26    1.61
  -2   2 -13   15.48    1.61
   3  -3 -13    8.09    1.29
   3   3 -13    8.31    1.18
   2  -3 -13    4.01    0.86
   2   3 -13    2.28    0.70
   1  -3 -13   -0.03    0.50
   1   3 -13    0.49    0.39
   1   3 -13   -0.14    0.57
   0  -3 -13   16.09    1.46
   0   3 -13   17.80    1.27
   0   3 -13   14.73    1.43
  -1  -3 -13    8.99    1.05
  -1  -3 -13    8.00    1.04
  -1   3 -13    9.04    1.06
  -1   3 -13    8.41    1.05
  -2  -3 -13   15.82    1.41
  -2   3 -13   16.33    1.58
   3  -4 -13   14.88    1.64
   3   4 -13   15.49    1.69
   2  -4 -13   34.27    2.44
   2   4 -13   32.49    2.39
   1  -4 -13   60.23    3.53
   1   4 -13   55.50    3.45
   1   4 -13   52.82    3.25
   0  -4 -13    3.68    0.77
   0   4 -13    4.28    0.67
   0   4 -13    4.69    0.83
  -1  -4 -13   -0.09    0.48
  -1   4 -13    0.26    0.52
  -1   4 -13    0.38    0.50
  -2  -4 -13   15.69    1.39
  -2   4 -13   17.55    1.64
   3  -5 -13    8.09    1.27
   3   5 -13   11.89    1.36
   2  -5 -13    5.48    0.96
   2   5 -13    5.01    0.93
   1  -5 -13    0.10    0.51
   1   5 -13   -0.20    0.35
   1   5 -13   -0.06    0.51
   0  -5 -13    3.64    0.76
   0   5 -13    5.99    0.76
   0   5 -13    4.42    0.82
  -1  -5 -13    8.97    1.07
  -1   5 -13    8.71    1.04
  -2  -5 -13    5.58    0.91
  -2  -5 -13    6.76    0.90
  -2   5 -13    6.60    1.00
   3  -6 -13    0.77    0.77
   3   6 -13    1.50    0.75
   2  -6 -13   44.27    2.94
   2   6 -13   43.38    2.89
   1  -6 -13    2.70    0.76
   1   6 -13    3.36    0.73
   1   6 -13    2.72    0.58
   0  -6 -13   15.18    1.45
   0   6 -13   16.16    1.22
   0   6 -13   14.64    1.41
  -1  -6 -13   16.94    1.51
  -1   6 -13   18.01    1.45
  -1   6 -13   16.92    1.45
  -2  -6 -13    0.88    0.60
  -2   6 -13    0.07    0.62
   3  -7 -13    0.65    0.71
   3   7 -13   -0.73    0.65
   2  -7 -13    2.48    0.78
   2   7 -13    3.28    0.77
   1  -7 -13   -0.23    0.58
   1   7 -13   -0.63    0.33
   1   7 -13    0.27    0.56
   0  -7 -13    0.44    0.60
   0   7 -13    0.59    0.38
   0   7 -13    0.47    0.54
  -1  -7 -13    2.12    0.67
  -1   7 -13    3.17    0.68
  -1   7 -13    2.93    0.70
  -2  -7 -13   -0.30    0.53
  -2   7 -13    0.77    0.71
   3  -8 -13    1.94    0.88
   3   8 -13    0.62    0.65
   2  -8 -13    7.08    1.15
   2   8 -13    6.51    1.06
   1  -8 -13    1.68    0.66
   1   8 -13    0.43    0.50
   1   8 -13    0.72    0.62
   0  -8 -13    2.68    0.77
   0   8 -13    3.62    0.76
   0   8 -13    2.76    0.62
  -1  -8 -13    8.82    1.11
  -1   8 -13   10.87    1.12
  -2  -8 -13    0.45    0.62
  -2   8 -13    0.16    0.71
   3  -9 -13    4.38    0.97
   3   9 -13    2.55    0.82
   2  -9 -13   -0.38    0.55
   2   9 -13    0.05    0.64
  -2   9  13    0.85    0.52
   1  -9 -13    1.70    0.72
   1   9 -13    0.17    0.60
   1   9 -13    0.69    0.46
   0  -9 -13    8.44    1.13
   0   9 -13   10.87    1.05
   0   9 -13    9.96    1.12
  -1  -9 -13    2.93    0.78
  -1   9 -13    2.99    0.69
  -2  -9 -13    5.50    0.97
  -2   9 -13    4.82    0.92
   3 -10 -13    0.82    0.76
  -3  10  13    0.13    0.69
   2 -10 -13   12.27    1.41
   2  10 -13   11.01    1.30
  -2  10  13   10.89    1.07
   1 -10 -13    2.61    0.72
   1  10 -13    1.97    0.60
   1  10 -13    1.20    0.62
   0 -10 -13   17.47    1.60
   0  10 -13   15.36    1.49
   0  10 -13   17.07    1.38
  -1 -10 -13   -0.18    0.55
  -1  10 -13    0.45    0.56
  -2 -10 -13    0.62    0.63
  -2  10 -13    1.03    0.68
   3 -11 -13    2.75    0.92
  -3 -11  13    3.24    0.94
  -3  11  13    3.53    0.83
   2 -11 -13    2.99    0.89
  -2  11  13    3.65    0.74
   2  11 -13    4.43    0.89
   1 -11 -13    1.61    0.68
   1  11 -13    0.27    0.53
   1  11 -13    1.17    0.62
   0 -11 -13    4.62    0.93
   0  11 -13    4.48    0.74
   0  11 -13    3.93    0.81
  -1 -11 -13   17.58    1.66
  -1  11 -13   19.64    1.59
  -2 -11 -13    2.04    0.72
  -2  11 -13    2.85    0.85
   2 -12 -13   24.42    1.96
  -2  12  13   21.83    1.67
   1 -12 -13    4.38    0.90
   1  12 -13    3.74    0.79
   0 -12 -13   14.95    1.59
   0  12 -13   18.03    1.44
  -1 -12 -13    2.18    0.72
  -1  12 -13    3.55    0.78
   2 -13 -13    4.95    1.03
  -2 -13  13    3.18    0.96
  -2  13  13    4.44    0.84
  -1 -13  13    0.69    0.67
   1 -13 -13    1.89    0.81
   1  13 -13    0.52    0.53
   0 -13  13    1.06    0.64
   0 -13 -13    1.96    0.77
   0  13 -13    1.43    0.58
  -1 -13 -13    9.39    1.26
  -1  13 -13   11.52    1.24
   2 -14 -13    4.92    0.98
  -2 -14  13    4.60    1.09
  -2  14  13    5.66    0.95
  -1 -14  13   10.17    1.33
   1 -14 -13   12.28    1.47
   1  14 -13   11.15    1.26
   0 -14  13   -0.25    0.57
   0 -14 -13   -0.31    0.55
   0  14 -13    0.62    0.58
  -1 -14 -13    0.70    0.70
  -1  14 -13    0.17    0.60
   1 -15 -13    0.73    0.69
  -1 -15  13    0.73    0.69
   1  15 -13   -0.27    0.50
   0 -15  13    0.53    0.65
   0 -15 -13   -0.50    0.58
   0  15 -13    0.47    0.55
   1 -16 -13    1.71    0.88
  -1 -16  13    2.96    0.90
   1  16 -13    2.56    0.76
   0 -16  13    3.44    0.87
   0 -16 -13    3.36    0.90
   0  16 -13    5.76    0.93
   3   0 -14   33.93    2.54
   2   0 -14   -0.05    0.59
   1   0 -14    0.71    0.68
   0   0 -14   58.95    3.64
  -1   0 -14    9.69    1.09
  -1   0 -14   10.73    1.20
  -2   0 -14   24.63    1.88
   3  -1 -14    4.76    1.04
   3   1 -14    5.55    1.11
   2  -1 -14    2.27    0.82
   2   1 -14    2.20    0.82
   1  -1 -14   14.18    1.55
   1   1 -14   17.64    1.61
   0  -1 -14    0.63    0.59
   0   1 -14    0.66    0.62
  -1  -1 -14    0.17    0.53
  -1  -1 -14    1.03    0.57
  -1   1 -14   -0.22    0.51
  -1   1 -14   -0.35    0.53
  -2  -1 -14    4.62    0.90
  -2   1 -14    5.08    0.95
   3  -2 -14    9.40    1.35
   3   2 -14    8.45    1.26
   2  -2 -14    0.22    0.63
   2   2 -14    0.32    0.69
   1  -2 -14    4.15    0.90
   1   2 -14    3.46    0.82
   0  -2 -14   26.88    2.05
   0   2 -14   27.24    1.76
   0   2 -14   25.60    2.03
  -1  -2 -14   13.63    1.41
  -1   2 -14   14.30    1.42
  -1   2 -14   13.18    1.23
  -2  -2 -14    4.77    0.88
  -2   2 -14    2.37    0.72
   3  -3 -14    1.37    0.77
   3   3 -14   -0.03    0.65
   2  -3 -14    1.68    0.77
   2   3 -14    1.56    0.78
   1  -3 -14    0.33    0.58
   1   3 -14   -0.19    0.54
   0  -3 -14   -0.33    0.57
   0   3 -14    0.95    0.47
   0   3 -14    0.33    0.66
  -1  -3 -14    2.34    0.68
  -1   3 -14    2.06    0.69
  -1   3 -14    2.10    0.70
  -2  -3 -14    0.50    0.62
  -2   3 -14   -0.83    0.58
   3  -4 -14    0.94    0.74
   3   4 -14    1.25    0.83
   2  -4 -14    3.37    0.91
   2   4 -14    3.36    0.83
   1  -4 -14    4.88    0.95
   1   4 -14    4.19    0.68
   1   4 -14    3.67    0.86
   0  -4 -14    3.25    0.77
   0   4 -14    3.35    0.63
   0   4 -14    3.04    0.81
  -1  -4 -14    2.80    0.75
  -1   4 -14    4.40    0.85
  -1   4 -14    5.05    0.83
  -2   4 -14    1.94    0.74
   3  -5 -14    6.96    1.24
   3   5 -14    5.30    1.03
   2  -5 -14    0.65    0.73
   2   5 -14    0.49    0.60
   1  -5 -14    9.75    1.26
   1   5 -14   10.25    1.22
   1   5 -14    9.14    1.00
   0  -5 -14   -0.11    0.60
   0   5 -14   -0.61    0.55
   0   5 -14    0.43    0.44
  -1  -5 -14    0.33    0.62
  -1   5 -14    2.02    0.67
  -1   5 -14    0.86    0.55
  -2   5 -14    2.34    0.76
   3  -6 -14    8.94    1.35
   3   6 -14    6.34    1.19
   2  -6 -14    0.78    0.73
   2   6 -14   -0.09    0.56
   1  -6 -14    0.16    0.66
   1   6 -14   -0.29    0.42
   1   6 -14   -0.38    0.55
   0  -6 -14   20.42    1.75
   0   6 -14   21.26    1.78
   0   6 -14   23.49    1.59
  -1  -6 -14    3.34    0.81
  -1   6 -14    3.03    0.73
  -2   6 -14    8.92    1.17
   3  -7 -14    1.13    0.90
   3   7 -14    2.18    0.81
   2  -7 -14   10.55    1.35
   2   7 -14   11.27    1.30
   1  -7 -14    5.54    1.03
   1   7 -14    4.75    0.78
   1   7 -14    5.41    0.92
   0  -7 -14    7.71    1.05
   0   7 -14    5.28    0.93
   0   7 -14    6.92    0.86
  -1  -7 -14    0.95    0.67
  -1   7 -14    1.37    0.65
  -2   7 -14    1.90    0.74
   3  -8 -14    3.08    0.94
   3   8 -14    3.92    0.99
   2  -8 -14    2.98    0.92
   2   8 -14    3.74    0.85
   1  -8 -14   10.98    1.33
   1   8 -14   12.57    1.13
   1   8 -14   10.30    1.26
   0  -8 -14    8.81    1.19
   0   8 -14    7.47    1.02
  -1  -8 -14   26.43    2.15
  -1   8 -14   31.35    2.06
   2  -9 -14    9.49    1.31
   2   9 -14    9.53    1.25
   1  -9 -14    1.47    0.79
   1   9 -14    0.97    0.71
   1   9 -14    0.95    0.52
   0  -9 -14    2.80    0.78
   0   9 -14    4.33    0.75
   0   9 -14    5.24    0.92
  -1  -9 -14    2.93    0.83
  -1   9 -14    3.39    0.79
   2 -10 -14    5.07    1.05
   2  10 -14    8.57    1.19
   1 -10 -14    9.91    1.31
   1  10 -14   10.23    1.23
   0 -10 -14    5.80    0.98
   0  10 -14    5.78    0.97
   0  10 -14    3.96    0.72
  -1 -10 -14   17.97    1.70
  -1  10 -14   22.37    1.70
   2 -11 -14    0.08    0.76
   2  11 -14    0.17    0.63
   1 -11 -14    0.22    0.70
   1  11 -14    0.03    0.45
   1  11 -14    0.19    0.66
   0 -11 -14    0.34    0.62
   0  11 -14    0.93    0.54
   0  11 -14    0.91    0.67
  -1 -11 -14    0.22    0.62
  -1  11 -14    0.15    0.61
   2 -12 -14   -0.28    0.68
   1 -12 -14   -0.13    0.62
   1  12 -14    0.51    0.60
   1  12 -14    0.13    0.53
   0 -12 -14    1.00    0.77
   0  12 -14    1.09    0.59
   1 -13 -14    2.51    0.90
  -1 -13  14    2.49    0.84
   1  13 -14    1.47    0.65
   0 -13 -14    7.61    1.14
   0 -13  14    6.36    1.05
   0  13 -14    7.98    0.99
   3   0 -15    0.05    0.78
   2   0 -15    0.44    0.69
   1   0 -15    0.02    0.65
   0   0 -15    0.18    0.59
  -1   0 -15    0.82    0.66
   2  -1 -15    0.64    0.74
   2   1 -15    1.07    0.79
   1  -1 -15    0.44    0.65
   1   1 -15    0.30    0.71
   0  -1 -15   10.12    1.25
   0   1 -15   10.70    1.32
  -1  -1 -15   -0.05    0.59
  -1   1 -15   -0.59    0.61
  -1   1 -15    0.16    0.55
   2  -2 -15    9.27    1.35
   2   2 -15   11.44    1.38
   1  -2 -15   12.28    1.47
   1   2 -15   11.02    1.38
   0  -2 -15    2.14    0.75
   0   2 -15    1.84    0.78
  -1  -2 -15   -0.48    0.60
  -1   2 -15   -0.17    0.55
  -1   2 -15    0.51    0.67
   2  -3 -15    6.16    1.18
   2   3 -15    7.15    1.12
   1  -3 -15    0.15    0.63
   1   3 -15    0.37    0.68
   0  -3 -15   28.44    2.27
   0   3 -15   32.16    2.31
  -1  -3 -15    0.49    0.67
  -1   3 -15    1.21    0.60
  -1   3 -15   -0.10    0.65
   2  -4 -15   18.82    1.91
   2   4 -15   19.14    1.82
   1  -4 -15   10.99    1.38
   1   4 -15   11.50    1.37
   0  -4 -15    3.68    0.88
   0   4 -15    5.08    0.97
   0   4 -15    7.75    0.84
  -1  -4 -15    1.85    0.75
  -1   4 -15    1.86    0.67
   2  -5 -15    0.81    0.74
   2   5 -15    0.38    0.64
   1  -5 -15   10.96    1.36
   1   5 -15   10.31    1.30
   0  -5 -15    4.13    0.94
   0   5 -15    5.54    0.74
   0   5 -15    4.90    0.96
  -1  -5 -15    8.24    1.17
  -1   5 -15    9.09    1.09
   2  -6 -15   10.67    1.44
   2   6 -15    8.58    1.21
   1  -6 -15    9.82    1.30
   1   6 -15    9.80    1.05
   1   6 -15   11.03    1.28
   0  -6 -15    3.21    0.88
   0   6 -15    1.70    0.79
   0   6 -15    3.57    0.66
  -1  -6 -15    0.23    0.59
  -1   6 -15    0.19    0.40
   2  -7 -15    0.42    0.72
   2   7 -15    0.36    0.70
   1  -7 -15   10.05    1.32
   1   7 -15    9.39    1.04
   1   7 -15    9.44    1.25
   0  -7 -15    1.09    0.66
   0   7 -15   -0.07    0.63
   0   7 -15    1.08    0.53
  -1  -7 -15    2.98    0.82
  -1   7 -15    4.82    0.87
   2  -8 -15   -0.31    0.75
   2   8 -15    1.01    0.76
   1  -8 -15   -0.54    0.60
   1   8 -15    0.99    0.73
   1   8 -15    0.44    0.48
   0  -8 -15    0.02    0.70
   0   8 -15   -0.44    0.57
   0   8 -15   -0.15    0.47
  -1  -8 -15    0.12    0.69
  -1   8 -15   -0.09    0.54
   2  -9 -15   -0.71    0.74
   2   9 -15    0.56    0.74
   1  -9 -15    0.15    0.71
   1   9 -15   -0.66    0.38
   1   9 -15   -0.43    0.58
   0  -9 -15    2.38    0.77
   0   9 -15    1.60    0.69
   1 -10 -15    2.01    0.87
   1  10 -15    0.89    0.72
   1  10 -15    2.06    0.64
   0 -10 -15    1.24    0.70
   0  10 -15    1.27    0.59
   0  10 -15    2.50    0.76
   2   0 -16    2.52    0.95
   1   0 -16    0.37    0.75
   0   0 -16   23.51    1.97
   2  -1 -16   17.75    1.86
   2   1 -16   13.47    1.63
   1  -1 -16    1.49    0.83
   1   1 -16    1.57    0.83
   0  -1 -16    0.71    0.75
   0   1 -16    0.27    0.66
   2  -2 -16    0.16    0.78
   2   2 -16    0.11    0.68
   1  -2 -16    1.73    0.78
   1   2 -16    0.48    0.66
   0  -2 -16    5.30    1.05
   0   2 -16    2.78    0.85
   1  -3 -16   -0.46    0.65
   1   3 -16    0.66    0.72
   0  -3 -16    0.66    0.67
   0   3 -16   -0.12    0.71
   1  -4 -16   -0.34    0.64
   1   4 -16    1.07    0.81
   0  -4 -16    1.71    0.75
   0   4 -16    1.50    0.81
   1  -5 -16   -0.47    0.64
   1   5 -16    0.57    0.73
   0  -5 -16    4.19    0.93
   0   5 -16    3.22    0.88
   1  -6 -16    0.21    0.77
   1   6 -16    0.37    0.71
   0  -6 -16    7.21    1.19
   0   6 -16    9.01    1.27
   0   6 -16   11.61    1.10
   0   0   0    0.00    0.00
;
loop_
_space_group_symop_operation_xyz
'x, y, z'
'-x, y+1/2, -z+1/2'
'-x, -y, -z'
'x, -y-1/2, z-1/2'
loop_
_atom_site_label
_atom_site_type_symbol
_atom_site_fract_x
_atom_site_fract_y
_atom_site_fract_z
_atom_site_U_iso_or_equiv
_atom_site_adp_type
_atom_site_occupancy
_atom_site_site_symmetry_order
_atom_site_calc_flag
_atom_site_refinement_flags_posn
_atom_site_refinement_flags_adp
_atom_site_refinement_flags_occupancy
_atom_site_disorder_assembly
_atom_site_disorder_group
C1 C 0.126(2) 0.4790(5) 0.0992(8) 0.032(2) Uani 1 1 d . . . . .
C2 C -0.030(3) 0.5385(5) 0.0869(8) 0.039(2) Uani 1 1 d . . . . .
H2 H -0.0487 0.5649 0.1458 0.047 Uiso 1 1 calc R U . . .
C3 C 0.158(2) 0.4406(5) 0.0114(8) 0.035(2) Uani 1 1 d . . . . .
H3 H 0.2665 0.4007 0.0188 0.042 Uiso 1 1 calc R U . . .
C4 C 0.038(3) 0.3416(6) 0.2018(9) 0.050(3) Uani 1 1 d . . . . .
H4A H -0.0167 0.3131 0.2573 0.075 Uiso 1 1 calc R U . . .
H4B H 0.1550 0.3168 0.1559 0.075 Uiso 1 1 calc R U . . .
H4C H -0.1470 0.3583 0.1618 0.075 Uiso 1 1 calc R U . . .
C5 C 0.225(2) 0.3978(5) 0.2486(8) 0.036(2) Uani 1 1 d . . . . .
C6 C 0.518(3) 0.4601(5) 0.3574(8) 0.042(3) Uani 1 1 d . . . . .
H6 H 0.6445 0.4738 0.4175 0.050 Uiso 1 1 calc R U . . .
C7 C 0.440(3) 0.4974(5) 0.2720(8) 0.041(2) Uani 1 1 d . . . . .
H7 H 0.4979 0.5413 0.2621 0.049 Uiso 1 1 calc R U . . .
Hg1 Hg 0.39779(12) 0.31347(2) 0.46968(4) 0.04825(16) Uani 1 1 d . . . . .
I1 I 0.60515(18) 0.20475(4) 0.38664(7) 0.0480(2) Uani 1 1 d . . . . .
I2 I 0.00610(16) 0.35980(4) 0.60039(6) 0.0457(2) Uani 1 1 d . . . . .
N1 N 0.383(2) 0.3981(5) 0.3440(7) 0.043(2) Uani 1 1 d . . . . .
N2 N 0.2585(19) 0.4585(4) 0.2018(6) 0.0331(18) Uani 1 1 d . . . . .
loop_
_atom_site_aniso_label
_atom_site_aniso_U_11
_atom_site_aniso_U_22
_atom_site_aniso_U_33
_atom_site_aniso_U_23
_atom_site_aniso_U_13
_atom_site_aniso_U_12
C1 0.035(5) 0.024(5) 0.038(5) 0.001(4) 0.008(4) -0.004(4)
C2 0.055(7) 0.029(5) 0.033(5) -0.002(4) 0.008(5) 0.004(5)
C3 0.045(6) 0.021(5) 0.040(6) 0.002(4) 0.010(5) 0.006(4)
C4 0.067(8) 0.042(7) 0.039(6) 0.009(5) -0.003(6) -0.017(6)
C5 0.040(6) 0.034(5) 0.036(6) 0.008(4) 0.008(5) 0.004(4)
C6 0.053(7) 0.041(6) 0.029(5) -0.005(5) -0.003(5) 0.003(5)
C7 0.056(7) 0.031(6) 0.036(6) -0.002(5) 0.005(5) -0.003(5)
Hg1 0.0572(3) 0.0485(3) 0.0394(3) 0.00680(19) 0.0075(2) 0.0175(2)
I1 0.0424(4) 0.0374(4) 0.0649(5) -0.0036(3) 0.0099(4) 0.0019(3)
I2 0.0299(4) 0.0672(5) 0.0389(4) -0.0154(3) 0.0002(3) -0.0001(3)
N1 0.055(6) 0.039(5) 0.034(5) 0.006(4) -0.003(4) 0.008(4)
N2 0.041(5) 0.024(4) 0.032(4) 0.004(3) -0.003(4) 0.002(4)
loop_
_atom_type_symbol
_atom_type_description
_atom_type_scat_dispersion_real
_atom_type_scat_dispersion_imag
_atom_type_scat_source
C C 0.0033 0.0016 'International Tables Vol C Tables 4.2.6.8 and 6.1.1.4'
H H 0.0000 0.0000 'International Tables Vol C Tables 4.2.6.8 and 6.1.1.4'
Hg Hg -2.3894 9.2266 'International Tables Vol C Tables 4.2.6.8 and 6.1.1.4'
I I -0.4742 1.8119 'International Tables Vol C Tables 4.2.6.8 and 6.1.1.4'
N N 0.0061 0.0033 'International Tables Vol C Tables 4.2.6.8 and 6.1.1.4'
loop_
_geom_angle_atom_site_label_1
_geom_angle_atom_site_label_2
_geom_angle_atom_site_label_3
_geom_angle
_geom_angle_site_symmetry_1
_geom_angle_site_symmetry_3
C2 C1 C3 119.5(9) . .
C2 C1 N2 119.8(9) . .
C3 C1 N2 120.6(9) . .
C3 C2 C1 120.8(10) 3_565 .
C3 C2 H2 119.6 3_565 .
C1 C2 H2 119.6 . .
C2 C3 C1 119.7(9) 3_565 .
C2 C3 H3 120.1 3_565 .
C1 C3 H3 120.1 . .
C5 C4 H4A 109.5 . .
C5 C4 H4B 109.5 . .
H4A C4 H4B 109.5 . .
C5 C4 H4C 109.5 . .
H4A C4 H4C 109.5 . .
H4B C4 H4C 109.5 . .
N1 C5 N2 108.8(9) . .
N1 C5 C4 125.1(9) . .
N2 C5 C4 126.0(9) . .
C7 C6 N1 110.3(9) . .
C7 C6 H6 124.9 . .
N1 C6 H6 124.9 . .
C6 C7 N2 106.3(9) . .
C6 C7 H7 126.8 . .
N2 C7 H7 126.8 . .
N1 Hg1 I1 108.3(2) . .
N1 Hg1 I2 101.7(2) . .
I1 Hg1 I2 144.03(3) . .
N1 Hg1 I2 95.7(2) . 1_655
I1 Hg1 I2 98.74(3) . 1_655
I2 Hg1 I2 97.48(3) . 1_655
Hg1 I2 Hg1 97.48(3) . 1_455
C5 N1 C6 106.5(9) . .
C5 N1 Hg1 126.5(7) . .
C6 N1 Hg1 126.8(7) . .
C7 N2 C5 108.0(8) . .
C7 N2 C1 125.0(8) . .
C5 N2 C1 127.0(8) . .
loop_
_geom_bond_atom_site_label_1
_geom_bond_atom_site_label_2
_geom_bond_distance
_geom_bond_site_symmetry_2
C1 C2 1.377(14) .
C1 C3 1.379(14) .
C1 N2 1.423(12) .
C2 C3 1.372(14) 3_565
C2 H2 0.9300 .
C3 C2 1.372(14) 3_565
C3 H3 0.9300 .
C4 C5 1.478(15) .
C4 H4A 0.9600 .
C4 H4B 0.9600 .
C4 H4C 0.9600 .
C5 N1 1.322(13) .
C5 N2 1.374(12) .
C6 C7 1.330(15) .
C6 N1 1.381(14) .
C6 H6 0.9300 .
C7 N2 1.367(13) .
C7 H7 0.9300 .
Hg1 N1 2.331(9) .
Hg1 I1 2.6347(10) .
Hg1 I2 2.6873(10) .
Hg1 I2 3.1005(10) 1_655
I2 Hg1 3.1005(10) 1_455
loop_
_geom_hbond_atom_site_label_D
_geom_hbond_atom_site_label_H
_geom_hbond_atom_site_label_A
_geom_hbond_distance_DH
_geom_hbond_distance_HA
_geom_hbond_distance_DA
_geom_hbond_angle_DHA
_geom_hbond_site_symmetry_A
C7 H7 I2 0.93 3.29 3.972(11) 132.4 3_666
C4 H4A I1 0.96 3.29 4.208(11) 160.9 1_455
C3 H3 I1 0.93 3.18 3.949(10) 141.8 4_565
loop_
_geom_torsion_atom_site_label_1
_geom_torsion_atom_site_label_2
_geom_torsion_atom_site_label_3
_geom_torsion_atom_site_label_4
_geom_torsion
_geom_torsion_site_symmetry_1
_geom_torsion_site_symmetry_2
_geom_torsion_site_symmetry_3
_geom_torsion_site_symmetry_4
C3 C1 C2 C3 1.3(17) . . . 3_565
N2 C1 C2 C3 179.5(9) . . . 3_565
C2 C1 C3 C2 -1.3(17) . . . 3_565
N2 C1 C3 C2 -179.5(9) . . . 3_565
N1 C6 C7 N2 -1.3(13) . . . .
N2 C5 N1 C6 0.2(12) . . . .
C4 C5 N1 C6 -178.7(11) . . . .
N2 C5 N1 Hg1 175.7(7) . . . .
C4 C5 N1 Hg1 -3.2(16) . . . .
C7 C6 N1 C5 0.7(13) . . . .
C7 C6 N1 Hg1 -174.8(8) . . . .
C6 C7 N2 C5 1.4(12) . . . .
C6 C7 N2 C1 -179.7(10) . . . .
N1 C5 N2 C7 -1.0(12) . . . .
C4 C5 N2 C7 177.9(11) . . . .
N1 C5 N2 C1 -179.8(9) . . . .
C4 C5 N2 C1 -1.0(17) . . . .
C2 C1 N2 C7 -48.5(14) . . . .
C3 C1 N2 C7 129.7(11) . . . .
C2 C1 N2 C5 130.1(11) . . . .
C3 C1 N2 C5 -51.7(15) . . . .
