#------------------------------------------------------------------------------
#$Date: 2022-05-02 12:32:09 +0300 (Mon, 02 May 2022) $
#$Revision: 274792 $
#$URL: file:///home/coder/svn-repositories/cod/cif/8/10/51/8105102.cif $
#------------------------------------------------------------------------------
#
# This file is available in the Crystallography Open Database (COD),
# http://www.crystallography.net/
#
# All data on this site have been placed in the public domain by the
# contributors.
#
data_8105102
loop_
_publ_author_name
'Tan, Yee Seng'
'Tiekink, Edward R.T.'
_publ_section_title
;
 Crystal structure of catena-poly[(bis(O,O&#x2032;-diethyl
 dithiophosphato-\k2
 S,S&#x2032;)-\m2-1,2-bis(3-pyridylmethylene)hydrazine-\k2
 N:N&#x2032;)cadmium(II)], {C20H30CdN4O4P2S4}n
;
_journal_issue                   2
_journal_name_full
'Zeitschrift f\"ur Kristallographie - New Crystal Structures'
_journal_page_first              343
_journal_page_last               345
_journal_paper_doi               10.1515/ncrs-2019-0655
_journal_volume                  235
_journal_year                    2020
_chemical_formula_moiety         'C20 H30 Cd N4 O4 P2 S4'
_chemical_formula_sum            'C20 H30 Cd N4 O4 P2 S4'
_chemical_formula_weight         693.06
_space_group_crystal_system      triclinic
_space_group_IT_number           2
_space_group_name_Hall           '-P 1'
_space_group_name_H-M_alt        'P -1'
_atom_sites_solution_hydrogens   geom
_atom_sites_solution_primary     direct
_atom_sites_solution_secondary   difmap
_audit_creation_method           SHELXL-2018/3
_cell_angle_alpha                86.516(3)
_cell_angle_beta                 63.362(3)
_cell_angle_gamma                75.250(3)
_cell_formula_units_Z            1
_cell_length_a                   9.0764(3)
_cell_length_b                   9.3969(3)
_cell_length_c                   9.6964(3)
_cell_measurement_reflns_used    13230
_cell_measurement_temperature    100(2)
_cell_measurement_theta_max      75.8030
_cell_measurement_theta_min      4.8720
_cell_volume                     713.50(5)
_computing_cell_refinement       'CrysAlisPro [1]'
_computing_data_collection       'CrysAlisPro [1]'
_computing_data_reduction        'CrysAlisPro [1]'
_computing_molecular_graphics    'ORTEP-3 for Windows [4]'
_computing_publication_material  'SHELXL-2018/3 [3]'
_computing_structure_refinement  'SHELXL-2018/3 [3]'
_computing_structure_solution    'SHELXS-97 [2]'
_diffrn_ambient_temperature      100(2)
_diffrn_detector_area_resol_mean 5.2558
_diffrn_measured_fraction_theta_full 1.000
_diffrn_measured_fraction_theta_max 1.000
_diffrn_measurement_device_type  'XtaLAB Synergy, Dualflex, AtlasS2'
_diffrn_measurement_method       '\w scans'
_diffrn_radiation_type           CuK\a
_diffrn_radiation_wavelength     1.54184
_diffrn_reflns_av_R_equivalents  0.0213
_diffrn_reflns_av_unetI/netI     0.0108
_diffrn_reflns_Laue_measured_fraction_full 1.000
_diffrn_reflns_Laue_measured_fraction_max 1.000
_diffrn_reflns_limit_h_max       10
_diffrn_reflns_limit_h_min       -10
_diffrn_reflns_limit_k_max       11
_diffrn_reflns_limit_k_min       -11
_diffrn_reflns_limit_l_max       11
_diffrn_reflns_limit_l_min       -11
_diffrn_reflns_number            15508
_diffrn_reflns_point_group_measured_fraction_full 1.000
_diffrn_reflns_point_group_measured_fraction_max 1.000
_diffrn_reflns_theta_full        67.065
_diffrn_reflns_theta_max         67.065
_diffrn_reflns_theta_min         4.876
_diffrn_source                   'micro-focus sealed X-ray tube'
_exptl_absorpt_coefficient_mu    10.212
_exptl_absorpt_correction_T_max  0.669
_exptl_absorpt_correction_T_min  0.325
_exptl_absorpt_correction_type   gaussian
_exptl_absorpt_process_details   'CrysAlisPro [1]'
_exptl_crystal_colour            yellow
_exptl_crystal_density_diffrn    1.613
_exptl_crystal_description       prism
_exptl_crystal_F_000             352
_exptl_crystal_size_max          0.218
_exptl_crystal_size_mid          0.140
_exptl_crystal_size_min          0.111
_refine_diff_density_max         0.197
_refine_diff_density_min         -0.586
_refine_diff_density_rms         0.067
_refine_ls_extinction_coef       .
_refine_ls_extinction_method     none
_refine_ls_goodness_of_fit_ref   1.051
_refine_ls_hydrogen_treatment    constr
_refine_ls_matrix_type           full
_refine_ls_number_parameters     162
_refine_ls_number_reflns         2560
_refine_ls_number_restraints     0
_refine_ls_restrained_S_all      1.051
_refine_ls_R_factor_all          0.0166
_refine_ls_R_factor_gt           0.0166
_refine_ls_shift/su_max          0.001
_refine_ls_shift/su_mean         0.000
_refine_ls_structure_factor_coef Fsqd
_refine_ls_weighting_details
'w=1/[\s^2^(Fo^2^)+(0.0309P)^2^+0.3351P] where P=(Fo^2^+2Fc^2^)/3'
_refine_ls_weighting_scheme      calc
_refine_ls_wR_factor_gt          0.0462
_refine_ls_wR_factor_ref         0.0462
_reflns_Friedel_coverage         0.000
_reflns_Friedel_fraction_full    .
_reflns_Friedel_fraction_max     .
_reflns_number_gt                2560
_reflns_number_total             2560
_reflns_threshold_expression     'I > 2\s(I)'
_cod_data_source_file            suppl_ncrs-2019-0655_suppl.cif
_cod_data_source_block           shelx
_cod_original_cell_volume        713.50(4)
_cod_database_code               8105102
_shelx_shelxl_version_number     2018/3
_shelx_space_group_comment
;
The symmetry employed for this shelxl refinement is uniquely defined
by the following loop, which should always be used as a source of
symmetry information in preference to the above space-group names.
They are only intended as comments.
;
_shelx_estimated_absorpt_t_min   0.214
_shelx_estimated_absorpt_t_max   0.397
_shelx_res_file
;
TITL 31
    shelx.res
    created by SHELXL-2018/3 at 13:18:56 on 16-Jun-2019
CELL 1.54178 9.0764 9.3969 9.6964 86.516 63.362 75.250
ZERR 1       0.0003 0.0003 0.0003  0.003  0.003  0.003
LATT 1
SFAC C  H  N  O  P  S  Cd
UNIT 20 30 4 4 2 4 1
L.S. 18
OMIT -3 150
ACTA
BOND $H
CONF
FMAP 2
PLAN -1
SIZE 0.111 0.140 0.218
TEMP -173
WGHT    0.030900    0.335100
FVAR       0.28510
CD    7    0.500000    0.500000    1.000000    10.50000    0.01104    0.01165 =
         0.01135    0.00187   -0.00511   -0.00143
S1    6    0.627104    0.217268    0.894206    11.00000    0.01469    0.01218 =
         0.01701    0.00142   -0.00529   -0.00430
S2    6    0.827821    0.488697    0.801993    11.00000    0.01284    0.01365 =
         0.01839    0.00142   -0.00402   -0.00468
P1    5    0.846479    0.273582    0.784531    11.00000    0.01133    0.01303 =
         0.01330    0.00040   -0.00612   -0.00140
O1    4    0.989868    0.179076    0.828794    11.00000    0.01837    0.01912 =
         0.02015   -0.00240   -0.01304    0.00186
O2    4    0.925409    0.212815    0.610068    11.00000    0.01267    0.01891 =
         0.01367   -0.00073   -0.00538   -0.00308
N1    3    0.416850    0.563168    0.798810    11.00000    0.01209    0.01674 =
         0.01256    0.00176   -0.00532   -0.00309
N2    3    0.492941    0.939559    0.547450    11.00000    0.01778    0.02141 =
         0.01591    0.00811   -0.00583   -0.00051
C1    1    1.016948    0.218775    0.956287    11.00000    0.01793    0.03002 =
         0.01472    0.00027   -0.00948   -0.00526
AFIX  23
H1A   2    0.927426    0.198654    1.055805    11.00000   -1.20000
H1B   2    1.012810    0.324990    0.957880    11.00000   -1.20000
AFIX   0
C2    1    1.189397    0.127194    0.932539    11.00000    0.02200    0.02766 =
         0.02569    0.00332   -0.01599   -0.00402
AFIX 137
H2A   2    1.216210    0.157193    1.011919    11.00000   -1.50000
H2B   2    1.275656    0.141812    0.830011    11.00000   -1.50000
H2C   2    1.188779    0.022857    0.940202    11.00000   -1.50000
AFIX   0
C3    1    1.093965    0.229019    0.498320    11.00000    0.01316    0.02461 =
         0.01785   -0.00069   -0.00281   -0.00550
AFIX  23
H3A   2    1.179689    0.184106    0.535561    11.00000   -1.20000
H3B   2    1.091571    0.334694    0.484423    11.00000   -1.20000
AFIX   0
C4    1    1.138765    0.152259    0.347848    11.00000    0.01906    0.02337 =
         0.01861   -0.00372   -0.00345   -0.00549
AFIX 137
H4A   2    1.255519    0.152879    0.273481    11.00000   -1.50000
H4B   2    1.059711    0.203682    0.306990    11.00000   -1.50000
H4C   2    1.130265    0.050186    0.365003    11.00000   -1.50000
AFIX   0
C5    1    0.441474    0.683400    0.720212    11.00000    0.01276    0.01661 =
         0.01410    0.00131   -0.00527   -0.00204
AFIX  43
H5    2    0.500008    0.743068    0.741411    11.00000   -1.20000
AFIX   0
C6    1    0.384587    0.725302    0.607712    11.00000    0.01230    0.02197 =
         0.01337    0.00104   -0.00465    0.00096
C7    1    0.298520    0.636693    0.578132    11.00000    0.01307    0.03188 =
         0.01527   -0.00081   -0.00806    0.00041
AFIX  43
H7    2    0.258755    0.661239    0.502101    11.00000   -1.20000
AFIX   0
C8    1    0.271687    0.512586    0.660791    11.00000    0.01329    0.02968 =
         0.02008   -0.00336   -0.00718   -0.00550
AFIX  43
H8    2    0.212395    0.451349    0.643116    11.00000   -1.20000
AFIX   0
C9    1    0.332678    0.479456    0.769373    11.00000    0.01308    0.01941 =
         0.01672    0.00086   -0.00437   -0.00576
AFIX  43
H9    2    0.314491    0.394049    0.825640    11.00000   -1.20000
AFIX   0
C10   1    0.413906    0.857271    0.521779    11.00000    0.01627    0.02500 =
         0.01371    0.00457   -0.00639    0.00278
AFIX  43
H10A  2    0.373770    0.882130    0.446030    11.00000   -1.20000
AFIX   0
HKLF 4




REM  31
REM wR2 = 0.0462, GooF = S = 1.051, Restrained GooF = 1.051 for all data
REM R1 = 0.0166 for 2560 Fo > 4sig(Fo) and 0.0166 for all 2560 data
REM 162 parameters refined using 0 restraints

END

WGHT      0.0244      0.3665

REM Highest difference peak  0.197,  deepest hole -0.586,  1-sigma level  0.067
Q1    1   0.3913  0.7213  0.6814  11.00000  0.05    0.20
;
_shelx_hkl_file
;
   0   0   1  131.17    1.61
   0   0  -1  123.67    1.68
   0   0   1  120.18    1.65
   0   0  -1  130.73    1.63
   0   0  -1  120.38    1.64
   0   0  -1  122.61    1.68
   0   0   1  123.22    1.62
   0   0  -2   32.67    0.71
   0   0  -2   31.87    0.70
   0   0  -2   31.09    0.63
   0   0  -2   29.97    0.65
   0   0   2   30.81    0.66
   0   0   2   33.00    0.60
   0   0  -3   10.12    0.41
   0   0  -3   10.07    0.42
   0   0  -3   10.27    0.43
   0   0   3   10.08    0.34
   0   0   3   10.24    0.39
   0   0  -3   10.11    0.37
   0   0  -3    9.70    0.44
   0   0   4  114.38    2.06
   0   0  -4  111.28    2.02
   0   0   4  120.32    2.10
   0   0  -4  113.03    1.98
   0   0  -4  103.32    2.04
   0   0   4  111.42    1.92
   0   0  -4  110.23    1.85
   0   0   4  110.32    1.75
   0   0   4  114.78    2.01
   0   0  -4  111.93    2.03
   0   0   5  281.14    4.42
   0   0   5  290.91    3.81
   0   0   5  274.26    4.00
   0   0   5  292.27    4.42
   0   0   5  277.06    4.31
   0   0  -5  279.92    4.29
   0   0  -5  273.03    3.91
   0   0  -5  264.67    4.28
   0   0  -5  281.19    4.23
   0   0  -5  277.09    3.87
   0   0  -6   46.07    1.03
   0   0  -6   43.37    1.34
   0   0   6   44.73    1.42
   0   0   6   44.65    1.44
   0   0   6   43.39    1.28
   0   0   6   43.80    1.24
   0   0   6   46.73    1.38
   0   0   6   44.35    1.37
   0   0   7    8.86    0.59
   0   0   7    9.78    0.67
   0   0   7    9.97    0.70
   0   0   7    9.67    0.69
   0   0   7    9.77    0.68
   0   0  -7    9.60    0.64
   0   0   8   15.84    0.80
   0   0   8   15.69    0.90
   0   0  -8   16.80    0.84
   0   0  -8   17.88    0.97
   0   0   8   16.29    0.93
   0   0   8   15.47    0.88
   0   0   8   18.03    0.91
   0   0   9   85.45    2.15
   0   0   9   80.62    2.05
   0   0  -9   86.72    2.13
   0   0  -9   85.78    1.87
   0   0   9   88.69    2.12
   0   0   9   87.26    2.20
   0   0 -10  120.98    2.22
   0   0  10  126.17    2.30
   0   0  10  119.62    2.16
   0   1 -10  118.81    2.16
   0  -1  10  118.25    2.24
   0  -1  10  114.47    2.11
   0  -1   9   25.88    0.99
   0  -1   9   25.56    1.09
   0  -1   9   25.60    1.06
   0  -1   9   28.04    1.16
   0   1  -9   27.96    0.98
   0   1  -9   26.64    1.07
   0  -1   8    1.06    0.25
   0   1  -8    1.43    0.26
   0   1  -8    1.23    0.27
   0  -1   8    1.20    0.27
   0  -1   8    1.43    0.30
   0  -1   8    1.23    0.27
   0  -1   8    1.07    0.27
   0   1  -7    0.72    0.20
   0  -1   7    0.64    0.20
   0  -1   7    0.93    0.25
   0  -1   7    1.03    0.25
   0   1  -7    1.24    0.27
   0  -1   7    0.89    0.23
   0   1  -6  193.33    3.00
   0   1  -6  190.91    3.47
   0  -1   6  194.28    3.59
   0  -1   6  192.32    3.40
   0  -1   6  191.18    3.55
   0  -1   6  199.26    3.50
   0  -1   6  189.78    3.58
   0   1  -6  195.30    3.62
   0   1  -5  282.59    4.25
   0   1  -5  292.49    4.15
   0   1  -5  299.00    4.53
   0   1  -5  303.75    4.51
   0  -1   5  297.55    4.55
   0  -1   5  293.76    4.15
   0  -1   5  294.70    4.60
   0   1  -5  289.45    4.37
   0  -1   5  289.48    4.58
   0   1  -4  156.78    2.52
   0  -1   4  152.72    2.46
   0   1  -4  146.29    2.45
   0   1  -4  152.58    2.50
   0  -1   4  152.37    2.56
   0  -1   4  150.43    2.37
   0   1  -4  146.84    2.51
   0  -1   4  155.34    2.58
   0   1  -4  145.11    2.28
   0   1  -4  160.11    2.53
   0  -1   4  156.26    2.56
   0   1  -4  136.62    2.49
   0   1  -3  115.65    1.97
   0  -1   3  125.17    1.96
   0   1  -3  126.46    2.02
   0   1  -3  118.01    2.02
   0  -1   3  123.43    1.95
   0   1  -3  123.07    1.99
   0  -1   3  120.33    1.97
   0   1  -2  217.47    2.96
   0  -1   2  211.77    2.95
   0   1  -2  220.37    2.96
   0   1  -2  215.57    2.98
   0   1  -2  210.46    2.97
   0  -1   2  214.18    2.96
   0  -1   2  219.25    2.96
   0   1  -1  571.99    7.07
   0  -1   1  589.78    7.15
   0   1  -1  571.66    7.15
   0   1  -1  569.30    7.07
   0   1  -1  580.38    7.08
   0  -1   0  406.98    4.65
   0  -1   0  400.54    4.63
   0   1   0  399.59    4.66
   0  -1  -1   22.80    0.45
   0   1   1   22.58    0.41
   0  -1  -1   21.39    0.37
   0  -1  -1   21.30    0.43
   0  -1  -1   21.44    0.41
   0  -1  -1   21.24    0.43
   0  -1  -2  686.88    8.39
   0  -1  -2  667.16    8.12
   0  -1  -2  679.17    8.29
   0  -1  -2  686.11    8.30
   0  -1  -2  676.00    8.40
   0   1   2  690.83    8.29
   0  -1  -2  667.05    8.43
   0   1   3   11.37    0.41
   0   1   3   11.43    0.25
   0  -1  -3   11.78    0.41
   0  -1  -3   11.34    0.48
   0  -1  -3   11.84    0.47
   0  -1  -3   11.29    0.41
   0  -1  -3   11.92    0.46
   0  -1  -3   11.13    0.32
   0  -1  -4  232.14    3.36
   0  -1  -4  233.64    3.49
   0   1   4  225.75    3.39
   0   1   4  223.84    2.89
   0  -1  -4  235.70    3.50
   0  -1  -4  220.37    3.06
   0   1   4  233.01    3.31
   0  -1  -4  230.05    3.31
   0   1   4  235.41    3.52
   0  -1  -4  224.63    3.26
   0   1   4  233.67    3.51
   0  -1  -4  226.49    3.54
   0  -1  -5  324.23    4.47
   0   1   5  314.17    4.72
   0   1   5  314.08    4.65
   0   1   5  320.35    4.42
   0   1   5  318.34    4.86
   0   1   5  322.07    4.92
   0  -1  -5  326.77    4.32
   0   1   5  307.66    4.70
   0   1   6   15.54    0.65
   0   1   6   16.05    0.79
   0   1   6   16.89    0.71
   0   1   6   15.01    0.72
   0   1   6   16.12    0.83
   0   1   6   15.96    0.81
   0  -1  -6   17.51    0.81
   0   1   7   40.84    1.22
   0   1   7   38.71    1.30
   0   1   7   36.41    1.39
   0   1   7   38.62    1.32
   0   1   7   37.47    1.17
   0   1   7   38.48    1.39
   0  -1  -7   39.08    1.32
   0   1   7   39.99    1.42
   0  -1  -8   56.28    1.57
   0   1   8   52.88    1.74
   0   1   8   53.97    1.71
   0   1   8   55.14    1.64
   0   1   8   54.63    1.76
   0  -1  -8   56.65    1.80
   0  -1  -9   87.76    1.84
   0   1   9   96.21    2.23
   0   1   9   90.08    1.85
   0  -1  -9   95.61    2.21
   0   1   9   95.25    2.25
   0   1   9   89.92    2.01
   0   1   9   88.88    2.09
   0   1  10   29.16    0.88
   0  -1 -10   27.16    0.84
   0  -2  10    7.79    0.47
   0  -2  10    7.90    0.46
   0   2 -10    7.61    0.41
   0  -2   9   81.75    1.93
   0  -2   9   82.32    2.10
   0  -2   9   78.96    1.94
   0   2  -9   78.62    1.94
   0  -2   9   81.09    1.99
   0   2  -9   84.66    1.89
   0  -2   9   80.29    2.04
   0   2  -8   12.65    0.78
   0  -2   8   12.02    0.77
   0  -2   8   12.05    0.77
   0  -2   8   13.05    0.80
   0  -2   8   11.85    0.75
   0  -2   8   12.21    0.81
   0  -2   8   11.96    0.77
   0   2  -8   12.70    0.75
   0  -2   7   86.43    2.32
   0  -2   7  104.13    2.41
   0  -2   7   87.79    2.36
   0  -2   7   94.00    2.37
   0   2  -7   86.39    2.32
   0   2  -7  100.03    2.34
   0  -2   7  101.66    2.41
   0   2  -7  103.68    1.87
   0  -2   6  173.79    3.34
   0  -2   6  163.43    3.23
   0  -2   6  173.88    3.16
   0  -2   6  167.51    3.31
   0   2  -6  166.89    3.21
   0   2  -6  166.27    2.80
   0  -2   6  167.99    3.18
   0   2  -6  176.67    3.29
   0  -2   5  198.76    3.32
   0   2  -5  185.18    3.15
   0   2  -5  195.66    3.40
   0  -2   5  203.71    3.22
   0  -2   5  203.01    3.47
   0  -2   5  201.85    3.46
   0  -2   5  192.04    3.09
   0   2  -5  189.63    3.07
   0   2  -5  196.39    3.39
   0  -2   5  201.52    3.41
   0   2  -4  164.69    2.81
   0   2  -4  166.23    2.74
   0  -2   4  171.81    2.86
   0  -2   4  171.87    2.86
   0   2  -4  160.66    2.75
   0   2  -4  160.54    2.63
   0   2  -4  167.74    2.69
   0  -2   4  175.80    2.81
   0  -2   4  171.15    2.45
   0   2  -4  163.64    2.71
   0   2  -4  166.63    2.67
   0   2  -4  159.99    2.80
   0  -2   4  167.61    2.72
   0   2  -4  165.28    2.43
   0   2  -4  169.45    2.16
   0  -2   4  160.47    2.68
   0   2  -3   17.53    0.62
   0  -2   3   17.45    0.61
   0  -2   3   16.97    0.59
   0   2  -3   17.07    0.38
   0  -2   3   17.40    0.58
   0   2  -3   16.85    0.55
   0  -2   3   15.82    0.56
   0   2  -3   17.49    0.56
   0   2  -3   15.81    0.59
   0   2  -3   16.54    0.59
   0  -2   3   17.26    0.61
   0   2  -3   16.08    0.55
   0  -2   2    5.23    0.29
   0   2  -2    5.60    0.26
   0   2  -2    5.06    0.19
   0   2  -2    5.57    0.26
   0   2  -2    4.75    0.24
   0  -2   2    5.42    0.29
   0   2  -1   24.60    0.46
   0  -2   1   23.92    0.50
   0   2  -1   23.78    0.58
   0  -2   1   24.90    0.60
   0   2  -1   24.08    0.45
   0   2  -1   25.03    0.52
   0   2  -1   24.71    0.47
   0   2   0    8.99    0.27
   0  -2   0    9.53    0.29
   0  -2   0    9.14    0.29
   0  -2   0    9.06    0.30
   0  -2  -1  259.46    3.16
   0  -2  -1  255.46    3.22
   0  -2  -1  255.77    3.14
   0  -2  -1  263.35    3.21
   0  -2  -1  253.51    3.30
   0  -2  -1  250.51    3.22
   0  -2  -2   87.30    1.51
   0  -2  -2   84.75    1.40
   0  -2  -2   82.17    1.19
   0  -2  -2   86.49    1.34
   0  -2  -2   82.63    1.37
   0  -2  -2   82.24    1.37
   0  -2  -3  228.33    3.15
   0   2   3  243.06    3.23
   0  -2  -3  223.06    3.41
   0  -2  -3  234.66    3.43
   0  -2  -3  232.63    3.25
   0  -2  -3  236.33    3.37
   0  -2  -3  238.28    3.38
   0   2   3  238.45    3.36
   0   2   4  215.51    3.10
   0  -2  -4  206.32    3.23
   0   2   4  221.08    3.38
   0  -2  -4  205.23    3.36
   0  -2  -4  217.67    3.13
   0  -2  -4  217.93    3.28
   0  -2  -4  217.36    3.32
   0   2   4  214.11    3.36
   0  -2  -4  211.76    3.07
   0   2   5  149.66    2.77
   0   2   5  151.76    2.80
   0   2   5  149.88    2.66
   0   2   5  150.33    2.63
   0   2   5  151.84    2.74
   0   2   5  154.69    2.71
   0   2   5  148.68    2.63
   0   2   6  146.09    2.83
   0   2   6  147.05    2.85
   0   2   6  150.82    2.68
   0   2   6  143.75    2.86
   0   2   6  143.99    2.92
   0   2   6  145.68    2.93
   0   2   7   19.67    0.89
   0   2   7   18.06    0.96
   0   2   7   18.82    0.95
   0   2   7   18.48    0.93
   0   2   7   19.75    0.96
   0  -2  -7   17.71    0.84
   0   2   7   18.56    0.84
   0   2   8   17.10    0.77
   0   2   8   16.34    0.76
   0  -2  -8   17.90    0.79
   0   2   8   17.07    0.88
   0   2   8   18.08    0.93
   0   2   8   17.38    0.94
   0   2   9   12.86    0.69
   0   2   9   12.75    0.70
   0   2   9   11.98    0.62
   0  -2  -9   13.66    0.71
   0   2  10    2.05    0.20
   0  -3  10   16.63    0.65
   0  -3  10   16.57    0.66
   0   3  -9   50.48    1.37
   0  -3   9   50.29    1.50
   0  -3   9   49.12    1.52
   0   3  -9   49.39    1.36
   0  -3   9   50.18    1.43
   0  -3   9   46.99    1.33
   0  -3   9   51.00    1.42
   0  -3   8  106.32    2.44
   0  -3   8  106.67    2.54
   0  -3   8  107.80    2.47
   0  -3   8  107.69    2.60
   0   3  -8  108.16    2.46
   0   3  -8  110.67    2.49
   0  -3   8  109.04    2.61
   0  -3   8  106.48    2.54
   0  -3   7    4.79    0.47
   0  -3   7    5.21    0.48
   0   3  -7    4.94    0.48
   0   3  -7    5.52    0.38
   0  -3   7    4.97    0.50
   0  -3   7    4.73    0.50
   0   3  -7    5.07    0.49
   0  -3   7    5.16    0.52
   0   3  -6  114.80    2.24
   0   3  -6  118.29    2.57
   0   3  -6  114.23    2.58
   0  -3   6  118.24    2.66
   0  -3   6  119.88    2.55
   0  -3   6  118.78    2.59
   0  -3   6  117.09    2.65
   0  -3   6  120.61    2.44
   0  -3   5   61.76    1.60
   0  -3   5   64.93    1.61
   0   3  -5   65.79    1.66
   0  -3   5   64.06    1.71
   0  -3   5   62.57    1.43
   0   3  -5   63.95    1.38
   0  -3   5   64.71    1.71
   0   3  -5   61.97    1.66
   0  -3   5   66.31    1.37
   0   3  -5   60.56    1.46
   0   3  -4  107.59    2.15
   0   3  -4   96.56    1.85
   0   3  -4   99.21    2.02
   0   3  -4   99.38    1.79
   0  -3   4  104.10    2.09
   0   3  -4   99.21    1.86
   0  -3   4  102.61    1.96
   0   3  -4  100.30    1.83
   0  -3   4  107.30    2.11
   0   3  -4  105.61    1.98
   0   3  -4  106.46    2.06
   0  -3   4  101.82    2.00
   0   3  -4   96.70    1.57
   0  -3   3    1.68    0.20
   0   3  -3    1.06    0.10
   0  -3   3    1.01    0.15
   0   3  -3    0.85    0.16
   0   3  -3    0.91    0.13
   0  -3   3    1.12    0.16
   0   3  -3    1.15    0.13
   0  -3   3    1.09    0.17
   0   3  -3    0.97    0.15
   0   3  -3    1.12    0.18
   0   3  -3    0.97    0.17
   0   3  -3    1.21    0.19
   0   3  -3    1.11    0.14
   0   3  -3    0.90    0.13
   0   3  -2   10.63    0.44
   0  -3   2    9.75    0.45
   0   3  -2    9.47    0.32
   0   3  -2    9.64    0.34
   0   3  -2    9.54    0.44
   0   3  -2   10.10    0.35
   0   3  -2   10.67    0.43
   0  -3   2   10.23    0.42
   0   3  -2   10.00    0.35
   0  -3   2   10.75    0.45
   0   3  -2    9.69    0.44
   0   3  -2   10.35    0.46
   0   3  -1   48.63    0.73
   0   3  -1   49.57    0.71
   0  -3   1   51.14    1.06
   0   3  -1   50.70    1.03
   0  -3   1   53.62    1.07
   0  -3   1   52.06    0.95
   0   3  -1   49.06    0.73
   0  -3   0 1000.00   11.90
   0   3   0  990.60   11.83
   0  -3   0  983.56   11.97
   0  -3  -1  692.28    8.60
   0  -3  -1  680.37    8.60
   0  -3  -1  759.19    8.76
   0   3   1  748.27    8.73
   0  -3  -1  776.91    9.19
   0  -3  -1  748.19    8.60
   0  -3  -1  747.13    8.78
   0  -3  -1  766.37    8.98
   0  -3  -2  123.58    1.78
   0  -3  -2  118.88    1.84
   0  -3  -2  120.09    1.79
   0  -3  -2  123.85    2.09
   0  -3  -2  119.71    1.79
   0  -3  -3   72.75    1.27
   0  -3  -3   72.92    1.36
   0  -3  -3   73.04    1.33
   0  -3  -3   72.63    1.52
   0  -3  -3   70.12    1.32
   0   3   4    1.82    0.23
   0  -3  -4    2.13    0.21
   0  -3  -4    2.30    0.23
   0  -3  -4    2.17    0.18
   0   3   4    2.02    0.22
   0  -3  -4    1.79    0.22
   0   3   5  120.22    2.45
   0   3   5  119.22    2.35
   0   3   5  118.28    2.42
   0   3   5  127.28    2.53
   0   3   5  121.86    2.37
   0   3   5  119.07    2.19
   0   3   5  122.59    2.35
   0   3   5  121.63    2.24
   0   3   6  157.61    2.93
   0   3   6  161.44    3.04
   0   3   6  152.65    2.92
   0   3   6  153.36    2.97
   0   3   6  149.57    3.09
   0   3   6  158.04    3.12
   0   3   6  149.56    2.68
   0   3   6  149.90    3.09
   0   3   7    1.00    0.24
   0  -3  -7    1.10    0.21
   0   3   7    0.93    0.22
   0   3   7    1.28    0.25
   0   3   7    0.55    0.21
   0   3   7    0.82    0.22
   0   3   8    1.17    0.25
   0   3   8    0.76    0.21
   0  -3  -8    0.82    0.17
   0   3   8    0.49    0.18
   0   3   8    0.66    0.17
   0   3   8    0.64    0.18
   0   3   9   23.61    0.89
   0  -3  -9   22.58    0.86
   0   3   9   24.78    0.72
   0   4  -9   76.64    1.70
   0  -4   9   74.17    1.81
   0   4  -9   72.08    1.59
   0  -4   9   75.36    1.85
   0  -4   9   76.38    1.73
   0  -4   8   75.10    2.00
   0  -4   8   74.38    2.00
   0   4  -8   77.81    1.96
   0  -4   8   75.52    2.01
   0   4  -8   76.33    1.86
   0  -4   8   74.14    1.79
   0  -4   8   77.62    2.09
   0   4  -7    8.01    0.63
   0   4  -7    8.19    0.52
   0  -4   7    8.04    0.64
   0  -4   7    7.86    0.65
   0   4  -7    8.55    0.61
   0  -4   7    8.09    0.56
   0  -4   7    7.47    0.60
   0  -4   7    7.34    0.53
   0  -4   7    8.54    0.66
   0   4  -7    7.99    0.49
   0   4  -6    4.90    0.41
   0  -4   6    5.28    0.36
   0  -4   6    4.92    0.50
   0   4  -6    4.76    0.45
   0  -4   6    4.78    0.47
   0  -4   6    4.61    0.40
   0  -4   6    4.18    0.46
   0   4  -6    3.94    0.44
   0  -4   6    4.36    0.40
   0  -4   5  186.85    3.19
   0   4  -5  185.46    3.29
   0  -4   5  187.91    3.40
   0   4  -5  188.21    3.55
   0   4  -5  189.19    3.19
   0  -4   5  185.38    3.50
   0   4  -5  189.64    3.37
   0  -4   5  190.33    2.95
   0  -4   5  186.56    3.52
   0  -4   5  188.04    3.14
   0   4  -4   77.83    1.81
   0   4  -4   81.20    1.97
   0  -4   4   81.41    1.76
   0  -4   4   82.71    1.60
   0   4  -4   79.21    1.74
   0  -4   4   81.91    1.88
   0   4  -4   76.65    1.46
   0   4  -4   75.71    1.46
   0  -4   4   81.88    1.90
   0   4  -4   82.97    1.81
   0   4  -3  155.39    2.57
   0  -4   3  146.36    2.65
   0  -4   3  154.09    2.71
   0   4  -3  164.89    2.67
   0   4  -3  151.70    2.31
   0   4  -3  159.58    2.38
   0   4  -3  163.50    2.84
   0  -4   3  156.83    2.72
   0   4  -3  146.94    2.67
   0   4  -3  154.57    2.84
   0   4  -3  156.18    2.69
   0   4  -3  160.91    2.35
   0   4  -3  149.64    2.50
   0   4  -2    4.51    0.34
   0   4  -2    4.64    0.21
   0   4  -2    4.68    0.21
   0   4  -2    6.13    0.39
   0   4  -2    5.05    0.20
   0   4  -2    3.82    0.30
   0  -4   2    3.91    0.31
   0  -4   2    4.59    0.32
   0   4  -2    4.08    0.32
   0  -4   2    4.58    0.30
   0   4  -2    3.99    0.33
   0   4  -2    4.41    0.28
   0   4  -2    4.94    0.34
   0  -4   2    5.75    0.36
   0   4  -1  439.36    5.81
   0   4  -1  429.79    5.85
   0  -4   1  423.20    5.76
   0   4  -1  434.01    5.77
   0   4  -1  429.29    5.72
   0  -4   1  429.11    5.61
   0  -4   1  441.57    5.77
   0   4   0  644.29    8.21
   0   4   0  648.21    7.93
   0  -4   0  675.82    8.15
   0  -4   0  648.58    8.01
   0  -4   0  665.75    8.05
   0   4   0  605.16    7.59
   0   4   0  613.12    7.64
   0   4   0  653.06    8.13
   0   4   0  628.92    8.21
   0   4   0  644.86    8.06
   0  -4  -1   74.58    1.38
   0   4   1   79.29    1.37
   0  -4  -1   76.50    1.53
   0  -4  -1   74.85    1.20
   0   4   1   73.71    1.15
   0   4   1   76.03    1.42
   0  -4  -1   73.93    1.23
   0  -4  -2    0.97    0.07
   0  -4  -2    0.82    0.07
   0  -4  -2    0.89    0.08
   0  -4  -2    0.98    0.16
   0  -4  -3   22.00    0.61
   0  -4  -3   20.16    0.56
   0  -4  -3   20.79    0.54
   0   4   4   84.93    1.83
   0   4   4   82.42    1.89
   0   4   4   87.37    1.97
   0   4   4   83.97    1.85
   0   4   4   87.71    1.88
   0   4   4   83.01    1.76
   0   4   4   84.35    1.88
   0   4   5  177.62    3.39
   0   4   5  173.24    3.09
   0   4   5  171.45    3.17
   0   4   5  164.04    3.17
   0   4   5  172.89    3.11
   0   4   5  172.36    3.30
   0   4   6   84.75    2.23
   0   4   6   81.81    2.08
   0   4   6   78.57    2.08
   0   4   6   83.23    2.19
   0   4   6   79.12    1.81
   0   4   6   82.31    1.99
   0   4   7    5.13    0.50
   0   4   7    5.43    0.53
   0   4   7    5.08    0.40
   0   4   7    5.18    0.52
   0  -4  -7    5.38    0.41
   0   4   8   10.24    0.64
   0   4   8    9.64    0.60
   0   4   8   10.53    0.67
   0   4   9   71.52    1.36
   0   4   9   71.04    1.47
   0  -5   9   34.76    0.99
   0  -5   9   31.51    0.97
   0  -5   9   34.65    1.08
   0   5  -9   33.22    0.96
   0  -5   8    3.42    0.37
   0  -5   8    3.37    0.36
   0  -5   8    3.30    0.37
   0   5  -8    3.25    0.37
   0   5  -8    2.99    0.28
   0   5  -8    2.99    0.30
   0  -5   8    3.22    0.40
   0   5  -7    1.13    0.22
   0   5  -7    1.28    0.27
   0  -5   7    0.92    0.24
   0  -5   7    1.19    0.27
   0   5  -7    1.82    0.25
   0  -5   7    1.11    0.25
   0   5  -7    1.34    0.25
   0  -5   7    0.69    0.20
   0  -5   6   97.78    2.44
   0  -5   6   96.71    2.01
   0   5  -6   97.73    2.20
   0   5  -6   94.15    2.21
   0  -5   6   98.04    2.44
   0   5  -6  102.27    2.38
   0   5  -6   99.76    2.48
   0  -5   6  105.60    2.29
   0  -5   5  230.82    4.10
   0   5  -5  235.27    4.00
   0  -5   5  234.47    4.27
   0  -5   5  245.25    3.99
   0  -5   5  241.38    4.25
   0   5  -5  246.12    4.06
   0   5  -5  228.96    4.30
   0   5  -5  238.19    4.11
   0  -5   4  241.27    4.16
   0   5  -4  249.08    4.09
   0   5  -4  238.13    4.30
   0  -5   4  239.15    3.94
   0   5  -4  245.43    3.96
   0  -5   4  239.30    4.09
   0   5  -4  239.43    4.16
   0   5  -3   33.07    1.18
   0   5  -3   32.99    1.00
   0  -5   3   32.39    1.10
   0   5  -3   31.38    1.09
   0   5  -3   34.92    1.22
   0  -5   3   31.95    1.05
   0  -5   3   33.53    0.91
   0   5  -2    2.68    0.27
   0  -5   2    2.68    0.28
   0  -5   2    2.64    0.27
   0   5  -2    2.72    0.31
   0   5  -2    2.91    0.24
   0   5  -2    2.58    0.30
   0   5  -2    2.76    0.22
   0   5  -2    2.92    0.33
   0   5  -2    2.66    0.30
   0  -5   2    2.98    0.27
   0   5  -1  161.07    2.93
   0   5  -1  164.73    2.43
   0   5  -1  153.90    2.59
   0  -5   1  157.55    2.47
   0   5  -1  164.00    2.75
   0   5  -1  161.10    2.81
   0  -5   1  160.16    2.60
   0   5  -1  161.70    2.33
   0   5  -1  162.08    2.87
   0  -5   1  155.44    2.64
   0  -5   1  157.83    2.51
   0   5   0  140.95    2.50
   0  -5   0  129.81    2.17
   0   5   0  129.32    2.10
   0   5   0  142.84    2.43
   0   5   0  141.77    2.56
   0   5   0  140.98    2.35
   0   5   0  131.27    2.06
   0  -5   0  134.39    2.20
   0   5   1    1.63    0.21
   0  -5  -1    1.95    0.21
   0  -5  -1    2.33    0.16
   0   5   2    3.45    0.32
   0   5   2    3.14    0.32
   0  -5  -2    3.59    0.25
   0   5   2    3.49    0.31
   0   5   2    3.87    0.31
   0   5   2    4.24    0.27
   0   5   2    4.01    0.33
   0   5   2    3.81    0.30
   0   5   3   71.12    1.72
   0   5   3   70.06    1.62
   0   5   3   67.73    1.72
   0   5   3   69.44    1.64
   0   5   3   69.68    1.64
   0   5   3   68.23    1.69
   0   5   3   68.27    1.59
   0   5   4  239.92    4.16
   0   5   4  234.31    4.06
   0   5   4  241.85    4.03
   0   5   4  234.77    4.03
   0   5   4  233.08    3.87
   0   5   4  234.77    4.09
   0   5   4  240.27    3.97
   0   5   5  135.40    2.93
   0   5   5  135.98    2.73
   0   5   5  133.03    2.83
   0   5   5  137.37    2.88
   0   5   5  132.76    2.80
   0   5   5  144.28    3.08
   0   5   6   32.33    1.33
   0   5   6   34.67    1.32
   0   5   6   34.11    1.22
   0   5   6   33.20    1.27
   0   5   6   35.11    1.41
   0   5   7   12.66    0.79
   0   5   7   13.96    0.83
   0   5   7   12.66    0.73
   0   5   8   25.13    0.95
   0   5   8   25.75    0.99
   0   5   8   23.79    0.86
   0   6  -8    1.66    0.23
   0  -6   8    2.35    0.30
   0   6  -8    2.03    0.26
   0  -6   8    1.99    0.26
   0   6  -8    2.20    0.25
   0  -6   8    1.88    0.26
   0  -6   8    1.80    0.21
   0  -6   7   89.99    2.19
   0  -6   7   85.67    1.89
   0   6  -7   86.44    2.10
   0   6  -7   92.85    2.22
   0   6  -7   89.43    1.83
   0   6  -7   95.37    1.94
   0  -6   7   78.06    2.05
   0  -6   7   86.39    1.71
   0  -6   7   83.48    2.12
   0   6  -6  192.46    3.78
   0   6  -6  190.93    3.74
   0  -6   6  190.24    3.61
   0  -6   6  189.64    3.73
   0  -6   6  193.00    3.25
   0   6  -6  194.96    3.52
   0   6  -6  187.81    3.30
   0  -6   6  184.96    3.65
   0  -6   6  186.49    3.26
   0  -6   5  154.90    3.19
   0  -6   5  159.55    3.31
   0   6  -5  166.12    3.20
   0   6  -5  161.55    3.41
   0  -6   5  160.11    3.10
   0   6  -5  164.94    3.25
   0  -6   5  160.53    3.12
   0   6  -4    4.40    0.49
   0  -6   4    4.25    0.42
   0   6  -4    4.20    0.44
   0   6  -4    4.62    0.48
   0  -6   4    4.26    0.45
   0  -6   4    4.74    0.41
   0   6  -4    4.83    0.39
   0   6  -3    0.77    0.21
   0   6  -3    1.25    0.27
   0  -6   3    0.92    0.16
   0   6  -3    1.06    0.19
   0  -6   3    0.87    0.21
   0  -6   3    1.27    0.22
   0   6  -3    1.50    0.28
   0   6  -2   17.94    0.93
   0   6  -2   19.11    0.91
   0  -6   2   17.88    0.81
   0   6  -2   18.03    0.86
   0  -6   2   17.53    0.72
   0   6  -2   18.15    0.64
   0   6  -1   55.43    1.44
   0   6  -1   56.08    1.56
   0  -6   1   55.48    1.20
   0   6  -1   55.07    1.59
   0   6  -1   55.26    1.66
   0   6  -1   57.36    1.51
   0   6   0  118.82    2.27
   0   6   0  123.05    2.12
   0   6   0  128.06    2.57
   0   6   0  124.15    2.37
   0   6   0  122.14    2.37
   0   6   0  120.56    2.25
   0   6   0  120.16    2.34
   0   6   0  121.34    2.10
   0   6   0  116.27    2.22
   0   6   0  126.47    2.47
   0   6   1   81.24    1.83
   0   6   1   78.18    1.88
   0   6   1   83.39    1.78
   0   6   1   78.10    1.84
   0   6   1   85.38    1.89
   0   6   1   78.89    1.81
   0   6   1   83.49    1.83
   0   6   1   79.45    1.72
   0   6   2   18.19    0.72
   0   6   2   20.83    0.84
   0   6   2   19.48    0.82
   0   6   2   20.08    0.85
   0   6   2   20.16    0.82
   0   6   2   18.67    0.88
   0   6   2   19.34    0.88
   0   6   3  214.33    3.63
   0   6   3  203.99    3.58
   0   6   3  209.30    3.76
   0   6   3  213.83    3.87
   0   6   3  207.95    3.58
   0   6   3  209.33    3.72
   0   6   3  197.07    3.84
   0   6   4  150.91    3.06
   0   6   4  152.83    3.21
   0   6   4  156.67    3.02
   0   6   4  150.43    2.97
   0   6   4  151.73    3.12
   0   6   4  151.67    3.19
   0   6   4  148.51    3.20
   0   6   5   14.06    0.89
   0   6   5   13.72    0.76
   0   6   5   13.20    0.76
   0   6   5   13.39    0.82
   0   6   5   13.50    0.81
   0   6   6   30.46    1.12
   0   6   6   32.11    1.25
   0   6   6   28.58    1.20
   0   6   6   28.49    1.12
   0   6   6   28.95    1.27
   0   6   7    5.06    0.41
   0   6   7    5.41    0.47
   0   6   7    6.02    0.52
   0   6   8   15.20    0.65
   0   7  -8   36.24    0.93
   0  -7   8   36.29    1.00
   0   7  -8   37.63    0.97
   0  -7   8   35.85    0.93
   0  -7   8   37.91    1.01
   0  -7   7   56.15    1.52
   0   7  -7   60.24    1.38
   0  -7   7   54.51    1.44
   0   7  -7   56.56    1.54
   0   7  -7   58.48    1.35
   0  -7   7   56.41    1.50
   0   7  -7   58.70    1.59
   0  -7   6   31.87    1.02
   0   7  -6   24.38    1.01
   0  -7   6   32.23    1.12
   0  -7   6   34.19    1.25
   0  -7   6   22.32    0.98
   0   7  -6   33.32    1.26
   0   7  -6   31.98    1.29
   0   7  -5    5.88    0.53
   0  -7   5    5.16    0.47
   0  -7   5    5.04    0.43
   0   7  -5    5.18    0.49
   0  -7   5    5.71    0.53
   0   7  -5    5.19    0.55
   0   7  -5    5.91    0.57
   0  -7   5    5.16    0.46
   0   7  -4    0.92    0.24
   0  -7   4    0.66    0.18
   0   7  -4    1.02    0.28
   0   7  -4    1.86    0.32
   0  -7   4    1.09    0.20
   0   7  -4    1.63    0.32
   0  -7   4    0.97    0.24
   0   7  -3   23.56    1.04
   0  -7   3   23.84    1.05
   0   7  -3   24.50    1.21
   0   7  -3   24.82    1.16
   0   7  -3   26.17    1.16
   0  -7   3   23.64    0.90
   0   7  -3   22.56    1.08
   0  -7   2  130.84    2.76
   0   7  -2  133.06    2.98
   0   7  -2  137.65    2.87
   0   7  -2  135.52    2.91
   0   7  -2  136.74    2.84
   0   7  -2  135.07    3.13
   0   7  -1   72.43    2.01
   0   7  -1   69.31    1.84
   0   7  -1   70.29    1.85
   0   7  -1   70.21    1.76
   0  -7   1   70.75    1.81
   0   7   0  177.64    3.00
   0   7   0  177.94    3.34
   0   7   0  178.23    2.97
   0   7   0  182.67    3.50
   0   7   0  172.26    3.32
   0   7   1   89.59    1.98
   0   7   1   89.34    2.17
   0   7   1   92.28    2.16
   0   7   1   88.04    2.14
   0   7   1   93.91    2.08
   0   7   1   90.56    2.19
   0   7   2   80.64    2.07
   0   7   2   79.42    1.92
   0   7   2   79.75    2.00
   0   7   2   82.27    1.99
   0   7   2   79.10    2.12
   0   7   2   76.34    1.71
   0   7   3   23.16    1.14
   0   7   3   25.32    1.03
   0   7   3   23.81    1.07
   0   7   3   22.16    0.99
   0   7   3   22.81    0.95
   0   7   4   24.17    1.14
   0   7   4   25.04    1.04
   0   7   4   24.29    1.03
   0   7   4   25.28    1.06
   0   7   4   24.77    1.13
   0   7   5   24.18    1.15
   0   7   5   24.74    1.05
   0   7   5   25.62    1.13
   0   7   5   24.44    1.01
   0   7   5   25.62    1.03
   0   7   6   10.55    0.57
   0   7   6   10.30    0.66
   0   7   6   10.14    0.69
   0   7   6   10.14    0.62
   0   7   6    9.11    0.53
   0   7   7   27.15    0.98
   0   7   7   28.53    0.92
   0  -8   7    3.38    0.28
   0   8  -7    3.46    0.32
   0  -8   7    3.21    0.23
   0   8  -7    3.77    0.31
   0   8  -7    3.62    0.31
   0  -8   6   17.66    0.73
   0  -8   6   17.16    0.64
   0  -8   6   16.60    0.65
   0  -8   6   17.91    0.68
   0   8  -6   19.19    0.92
   0   8  -6   20.34    0.76
   0   8  -6   18.85    0.82
   0   8  -6   17.98    0.84
   0  -8   6   18.25    0.78
   0   8  -5   47.59    1.63
   0  -8   5   46.83    1.44
   0   8  -5   48.88    1.54
   0  -8   5   47.23    1.27
   0   8  -5   50.31    1.45
   0  -8   5   48.62    1.43
   0   8  -4   92.31    2.36
   0  -8   4   94.51    2.26
   0   8  -4   93.41    2.48
   0   8  -4   93.81    2.26
   0   8  -4   94.36    2.38
   0  -8   4   90.31    1.88
   0   8  -3  118.13    2.79
   0   8  -3  119.08    2.69
   0   8  -3  113.43    2.78
   0  -8   3  117.48    2.59
   0   8  -3  117.83    2.78
   0  -8   2   38.07    1.32
   0   8  -2   39.33    1.41
   0   8  -2   38.69    1.49
   0   8  -2   38.96    1.41
   0   8  -2   39.79    1.43
   0   8  -2   38.94    1.43
   0   8  -1   89.58    2.32
   0   8  -1   90.26    2.39
   0   8  -1   91.99    2.17
   0  -8   1   92.18    2.16
   0   8  -1   92.57    2.11
   0   8  -1   96.51    2.46
   0   8   0   97.31    2.45
   0   8   0  101.79    2.49
   0  -8   0   99.60    2.20
   0   8   0   95.19    2.24
   0   8   0   96.83    2.41
   0   8   1   20.00    0.87
   0   8   1   18.22    0.95
   0   8   1   18.75    0.98
   0   8   1   19.26    0.91
   0   8   1   19.90    0.99
   0   8   2   10.77    0.71
   0   8   2   11.05    0.68
   0   8   2   10.54    0.66
   0   8   2   10.95    0.74
   0   8   3    2.77    0.34
   0   8   3    3.27    0.41
   0   8   3    2.64    0.35
   0   8   3    2.96    0.38
   0   8   4   24.21    1.00
   0   8   4   23.83    1.08
   0   8   4   22.06    0.85
   0   8   4   24.48    1.10
   0   8   4   23.44    0.94
   0   8   5   73.67    1.95
   0   8   5   79.01    1.96
   0   8   5   77.33    1.73
   0   8   5   74.31    1.65
   0   8   5   70.27    1.62
   0   8   6   34.03    0.90
   0   8   6   37.25    1.12
   0   8   6   35.30    1.13
   0   9  -6   93.22    1.43
   0   9  -6   90.11    1.75
   0   9  -5  219.19    3.38
   0  -9   5  205.25    3.37
   0   9  -5  219.58    3.55
   0  -9   5  201.87    3.36
   0   9  -5  216.87    3.81
   0   9  -5  219.22    3.49
   0  -9   4   56.83    1.56
   0   9  -4   56.40    1.52
   0   9  -4   57.56    1.53
   0   9  -4   58.52    1.57
   0   9  -4   58.92    1.75
   0  -9   4   53.84    1.43
   0   9  -4   57.57    1.73
   0   9  -3    2.80    0.34
   0   9  -3    3.13    0.37
   0   9  -3    2.55    0.36
   0   9  -3    2.68    0.39
   0  -9   3    2.39    0.30
   0   9  -2    4.30    0.45
   0   9  -2    3.83    0.44
   0  -9   2    3.77    0.37
   0   9  -2    3.95    0.42
   0   9  -2    3.67    0.36
   0   9  -2    3.93    0.47
   0   9  -1   31.14    1.26
   0   9  -1   30.52    1.25
   0   9  -1   29.76    1.28
   0   9  -1   29.99    1.07
   0  -9   1   30.88    1.05
   0  -9   0   66.77    1.59
   0   9   0   68.82    1.95
   0   9   0   66.60    1.96
   0   9   1    3.31    0.41
   0   9   1    4.03    0.46
   0   9   2    8.32    0.60
   0   9   2    8.67    0.64
   0   9   3   49.07    1.43
   0   9   3   51.82    1.58
   0   9   3   49.31    1.43
   0   9   4   98.55    1.94
   0   9   4   97.79    2.16
   0   9   5   90.32    1.85
   0   9   5   86.92    1.80
   0  10  -4    5.81    0.42
   0  10  -4    6.32    0.35
   0  10  -4    6.15    0.42
   0  10  -4    5.61    0.36
   0 -10   4    5.81    0.37
   0  10  -3   21.84    0.83
   0 -10   3   20.39    0.80
   0  10  -3   22.70    0.93
   0  10  -3   22.63    0.81
   0 -10   2   21.60    0.88
   0  10  -2   21.55    0.78
   0  10  -2   22.82    0.97
   0  10  -2   22.43    0.88
   0 -10   1  125.54    2.54
   0  10  -1  129.47    2.62
   0  10   0   58.28    1.63
   0  10   0   59.63    1.64
   0  10   1   19.16    0.86
   0  10   1   20.24    0.84
   0  10   2    1.86    0.23
   0  10   2    1.77    0.26
   0  10   3  137.61    2.53
  -1  10   2   50.72    1.24
  -1  10   2   52.91    1.22
  -1  10   1   53.69    1.37
  -1  10   1   51.96    1.34
  -1  10   0    2.29    0.26
  -1  10   0    2.36    0.29
  -1  10  -1   32.66    1.01
  -1  10  -1   34.60    1.18
  -1  10  -2   42.89    1.12
   1 -10   2   42.58    0.97
  -1  10  -3   56.31    1.20
   1 -10   3   58.72    1.41
   1 -10   4    2.47    0.26
  -1  10  -4    2.69    0.28
  -1   9   4   54.28    1.35
  -1   9   4   57.40    1.26
  -1   9   3  218.79    3.67
  -1   9   3  223.43    3.62
  -1   9   2  112.55    2.46
  -1   9   2  111.47    2.44
   1  -9  -1    1.63    0.23
  -1   9   1    1.85    0.31
  -1   9   1    1.56    0.27
  -1   9   0    1.43    0.26
  -1   9   0    1.53    0.24
  -1   9   0    2.04    0.33
   1  -9   0    1.81    0.26
  -1   9  -1   30.92    1.18
  -1   9  -1   29.55    1.25
   1  -9   1   28.26    1.03
  -1   9  -1   30.00    1.15
  -1   9  -2  134.14    2.59
  -1   9  -2  137.34    2.77
  -1   9  -2  135.96    2.73
   1  -9   2  140.27    2.73
  -1   9  -2  147.72    3.16
  -1   9  -2  143.49    2.97
  -1   9  -3   20.70    0.95
  -1   9  -3   20.20    0.89
   1  -9   3   20.11    0.86
  -1   9  -3   20.83    0.85
  -1   9  -3   21.83    1.06
  -1   9  -3   22.12    1.00
   1  -9   4    2.00    0.26
  -1   9  -4    1.96    0.30
  -1   9  -4    2.00    0.25
  -1   9  -4    2.41    0.34
  -1   9  -4    2.00    0.29
  -1   9  -4    1.96    0.24
  -1   9  -4    2.12    0.33
  -1   9  -5   11.13    0.56
  -1   9  -5   12.97    0.71
   1  -9   5   11.66    0.57
  -1   9  -5   12.25    0.67
   1  -9   5   12.01    0.57
  -1   9  -5   12.05    0.70
  -1   9  -6   77.68    1.74
   1  -9   6   71.80    1.45
   1  -9   6   69.86    1.50
  -1   9  -6   80.29    1.72
  -1   9  -6   78.19    1.71
  -1   8   5   35.58    0.97
  -1   8   5   37.84    1.05
  -1   8   5   37.07    1.15
  -1   8   5   34.27    1.11
  -1   8   4  120.97    2.61
  -1   8   4  136.35    2.75
  -1   8   4  126.36    2.43
  -1   8   4  135.74    2.67
  -1   8   3   89.57    2.24
  -1   8   3   87.31    1.94
  -1   8   3   84.56    2.09
  -1   8   3   87.31    2.18
  -1   8   2    1.43    0.29
  -1   8   2    0.90    0.23
  -1   8   2    1.19    0.23
  -1   8   2    0.98    0.20
  -1   8   1    1.22    0.28
  -1   8   1    1.15    0.25
  -1   8   1    0.97    0.20
  -1   8   0    3.58    0.41
  -1   8   0    2.54    0.35
  -1   8   0    3.22    0.42
  -1   8  -1   85.75    2.29
  -1   8  -1   84.63    2.13
  -1   8  -1   82.96    1.87
  -1   8  -1   83.02    1.97
   1  -8   1   86.13    2.14
  -1   8  -1   81.07    2.28
  -1   8  -2  159.51    3.22
  -1   8  -2  163.55    3.21
  -1   8  -2  157.75    3.48
   1  -8   2  160.41    3.24
  -1   8  -2  165.29    3.04
  -1   8  -2  160.34    3.41
  -1   8  -3   12.68    0.72
  -1   8  -3   14.04    0.75
  -1   8  -3   12.62    0.81
   1  -8   3   12.89    0.77
  -1   8  -3   13.02    0.83
  -1   8  -3   13.99    0.90
  -1   8  -4   20.28    0.92
  -1   8  -4   20.78    1.07
  -1   8  -4   21.11    0.89
  -1   8  -4   21.60    1.05
   1  -8   4   19.79    0.95
  -1   8  -4   21.45    1.08
   1  -8   4   19.89    0.79
   1  -8   5   66.00    1.79
   1  -8   5   64.79    1.57
  -1   8  -5   68.28    1.91
   1  -8   5   63.18    1.69
  -1   8  -5   67.06    1.83
  -1   8  -5   67.87    1.58
  -1   8  -5   67.32    1.73
  -1   8  -5   67.90    1.99
  -1   8  -6   48.35    1.54
   1  -8   6   45.55    1.34
  -1   8  -6   48.21    1.31
   1  -8   6   46.51    1.34
   1  -8   6   44.70    1.18
   1  -8   6   44.66    1.17
  -1   8  -7   19.44    0.80
   1  -8   7   17.93    0.69
  -1   8  -7   17.84    0.72
   1  -8   7   17.71    0.57
  -1   8  -7   19.07    0.67
   1  -8   7   17.01    0.61
  -1   7   6    1.57    0.25
  -1   7   6    1.75    0.24
  -1   7   5   10.21    0.69
  -1   7   5   10.54    0.66
  -1   7   5   10.57    0.68
  -1   7   5   11.60    0.67
  -1   7   4   10.86    0.75
  -1   7   4   10.85    0.59
  -1   7   4   11.88    0.74
  -1   7   4   11.59    0.73
  -1   7   4   11.72    0.76
  -1   7   3    8.01    0.60
  -1   7   3    7.57    0.60
  -1   7   3    8.13    0.63
  -1   7   3    8.29    0.63
  -1   7   3    7.93    0.52
  -1   7   2    7.57    0.56
  -1   7   2    8.27    0.53
  -1   7   2    7.92    0.61
  -1   7   2    7.41    0.55
  -1   7   2    7.60    0.60
  -1   7   1   79.44    1.88
  -1   7   1   80.93    1.88
  -1   7   1   84.17    1.99
  -1   7   1   77.54    1.93
  -1   7   1   81.42    2.05
  -1   7   1   78.52    2.10
  -1   7   0   56.98    1.72
  -1   7   0   53.63    1.67
  -1   7   0   54.55    1.59
  -1   7   0   53.66    1.34
  -1   7   0   52.49    1.61
  -1   7  -1   92.76    2.35
  -1   7  -1   92.88    2.30
  -1   7  -1   91.53    2.13
  -1   7  -1   90.14    2.28
  -1   7  -1   89.43    2.05
   1  -7   2   91.02    2.25
  -1   7  -2   90.67    2.37
   1  -7   2   92.33    1.93
  -1   7  -2   95.66    2.17
  -1   7  -2   92.12    2.48
  -1   7  -2   90.33    2.09
  -1   7  -2   89.28    2.19
  -1   7  -3  113.22    2.88
   1  -7   3  107.96    2.28
  -1   7  -3  105.46    2.58
   1  -7   3  108.67    2.56
  -1   7  -3  111.30    2.40
  -1   7  -3  117.18    2.55
  -1   7  -3  111.73    2.68
  -1   7  -4   40.04    1.44
  -1   7  -4   41.83    1.58
  -1   7  -4   38.38    1.49
   1  -7   4   38.76    1.29
   1  -7   4   37.90    1.41
  -1   7  -4   38.58    1.26
  -1   7  -4   38.45    1.44
  -1   7  -5   10.30    0.78
  -1   7  -5   10.10    0.60
  -1   7  -5   10.70    0.72
   1  -7   5   10.36    0.66
  -1   7  -5   10.58    0.71
   1  -7   5    9.85    0.70
  -1   7  -5   10.55    0.75
  -1   7  -6    5.20    0.39
  -1   7  -6    5.52    0.50
   1  -7   6    5.38    0.47
  -1   7  -6    5.12    0.47
   1  -7   6    4.37    0.37
  -1   7  -6    4.44    0.49
   1  -7   6    4.59    0.46
  -1   7  -6    4.38    0.43
   1  -7   6    4.63    0.39
  -1   7  -7   13.39    0.70
   1  -7   7   13.25    0.68
   1  -7   7   14.13    0.73
  -1   7  -7   15.07    0.71
   1  -7   7   12.41    0.62
   1  -7   7   13.83    0.64
  -1   7  -7   13.72    0.77
   1  -7   8   34.72    0.99
  -1   7  -8   32.84    0.98
  -1   7  -8   34.39    0.98
   1  -7   8   33.86    0.97
  -1   6   7   11.43    0.63
  -1   6   7   12.34    0.62
  -1   6   6    1.99    0.28
  -1   6   6    1.65    0.21
  -1   6   6    2.14    0.31
  -1   6   6    1.50    0.29
  -1   6   5    2.90    0.39
  -1   6   5    3.61    0.45
  -1   6   5    3.47    0.35
  -1   6   5    3.35    0.40
  -1   6   5    4.06    0.45
  -1   6   4   44.44    1.53
  -1   6   4   43.70    1.57
  -1   6   4   44.70    1.50
  -1   6   4   42.91    1.31
  -1   6   4   42.05    1.50
  -1   6   3  114.64    2.57
  -1   6   3  114.40    2.55
  -1   6   3  115.85    2.64
  -1   6   3  112.07    2.55
  -1   6   3  113.06    2.33
  -1   6   2  276.15    4.46
  -1   6   2  267.05    4.19
  -1   6   2  270.80    4.47
  -1   6   2  277.46    4.52
  -1   6   1  135.35    2.52
  -1   6   1  137.60    2.63
  -1   6   1  137.24    2.60
  -1   6   1  129.84    2.38
  -1   6   1  135.68    2.62
  -1   6   1  138.06    2.71
  -1   6   1  136.53    2.73
  -1   6   0   23.14    0.93
  -1   6   0   23.29    0.91
  -1   6   0   23.18    0.75
  -1   6   0   22.85    0.97
  -1   6   0   23.74    0.80
  -1   6   0   23.54    0.95
  -1   6   0   24.08    0.89
  -1   6   0   21.62    0.75
  -1   6  -1   18.54    0.68
  -1   6  -1   19.91    0.76
  -1   6  -1   19.49    0.89
  -1   6  -1   21.25    0.97
  -1   6  -1   18.86    0.91
  -1   6  -1   19.39    0.79
  -1   6  -1   18.82    0.78
   1  -6   1   19.91    0.72
  -1   6  -2   81.59    2.15
  -1   6  -2   80.57    1.85
  -1   6  -2   81.93    2.06
   1  -6   2   80.26    1.77
  -1   6  -2   80.86    1.91
  -1   6  -2   78.58    2.02
  -1   6  -2   80.83    1.81
  -1   6  -3  190.73    3.48
  -1   6  -3  192.31    3.81
  -1   6  -3  181.82    3.55
  -1   6  -3  179.14    3.46
  -1   6  -3  185.37    3.62
  -1   6  -3  195.94    3.32
   1  -6   3  190.97    3.55
   1  -6   3  181.95    3.30
  -1   6  -4    7.75    0.62
   1  -6   4    8.43    0.59
  -1   6  -4    8.88    0.70
  -1   6  -4    8.77    0.65
  -1   6  -4    7.91    0.61
   1  -6   4    7.56    0.60
  -1   6  -5    4.83    0.50
  -1   6  -5    4.70    0.47
  -1   6  -5    5.34    0.54
   1  -6   5    4.51    0.41
  -1   6  -5    5.13    0.53
   1  -6   5    4.58    0.48
   1  -6   5    5.15    0.49
  -1   6  -6   20.36    1.02
  -1   6  -6   21.02    1.01
  -1   6  -6   19.49    1.03
   1  -6   6   19.55    0.83
  -1   6  -6   18.85    0.89
   1  -6   6   19.84    1.01
   1  -6   6   20.30    1.00
   1  -6   6   19.35    0.90
   1  -6   7  166.83    3.25
  -1   6  -7  164.81    3.33
  -1   6  -7  177.27    3.24
  -1   6  -7  176.35    3.39
   1  -6   7  165.96    3.33
   1  -6   7  166.02    3.04
   1  -6   7  172.34    3.39
   1  -6   8  192.83    3.34
   1  -6   8  190.47    3.38
   1  -6   8  181.26    3.31
  -1   6  -8  181.50    3.18
   1  -6   8  175.78    2.90
  -1   6  -8  192.14    3.08
  -1   6  -8  200.59    3.37
   1  -6   9   25.05    0.77
  -1   6  -9   25.94    0.78
  -1   6  -9   24.14    0.70
   1  -6   9   25.34    0.79
  -1   5   8   35.69    1.00
  -1   5   7   72.70    1.91
  -1   5   7   75.86    1.90
  -1   5   6   46.42    1.38
  -1   5   6   47.72    1.67
  -1   5   6   48.47    1.63
  -1   5   6   47.98    1.63
  -1   5   6   50.48    1.55
  -1   5   5   13.87    0.80
  -1   5   5   14.64    0.87
  -1   5   5   14.34    0.90
  -1   5   5   12.80    0.70
  -1   5   4  172.66    3.26
  -1   5   4  165.76    3.07
  -1   5   4  166.69    3.45
  -1   5   4  171.46    3.32
  -1   5   4  165.82    3.36
  -1   5   3  285.65    4.47
  -1   5   3  306.69    4.87
  -1   5   3  289.02    4.77
  -1   5   3  295.17    4.68
  -1   5   3  302.53    4.73
  -1   5   2  106.81    2.22
  -1   5   2  110.27    2.24
  -1   5   2  110.36    2.32
  -1   5   2  109.33    2.18
  -1   5   2  107.34    2.19
  -1   5   2  108.89    1.97
  -1   5   1    0.90    0.18
  -1   5   1    1.01    0.18
  -1   5   1    1.45    0.21
   1  -5  -1    1.01    0.15
  -1   5   1    0.77    0.16
  -1   5   1    0.99    0.15
  -1   5   1    0.97    0.18
  -1   5   0    8.27    0.49
   1  -5   0    7.78    0.34
  -1   5   0    7.65    0.47
  -1   5   0    7.45    0.41
  -1   5   0    7.77    0.45
   1  -5   0    7.59    0.44
  -1   5   0    8.84    0.52
  -1   5  -1    6.88    0.38
   1  -5   1    6.68    0.39
  -1   5  -1    6.37    0.47
  -1   5  -1    7.15    0.40
  -1   5  -1    7.54    0.50
  -1   5  -1    7.64    0.48
   1  -5   1    7.06    0.38
   1  -5   1    7.57    0.41
  -1   5  -2  430.62    6.33
  -1   5  -2  419.65    6.47
  -1   5  -2  434.57    5.72
   1  -5   2  439.27    6.06
  -1   5  -2  459.29    6.19
  -1   5  -2  445.21    6.14
  -1   5  -2  440.12    6.51
  -1   5  -2  442.49    6.40
   1  -5   2  428.12    6.09
   1  -5   2  437.83    5.68
  -1   5  -2  438.96    6.04
  -1   5  -3   67.32    1.75
  -1   5  -3   68.95    1.73
  -1   5  -3   66.32    1.72
   1  -5   3   67.73    1.63
  -1   5  -3   69.27    1.86
  -1   5  -3   70.13    1.72
   1  -5   3   70.02    1.74
  -1   5  -4   38.46    1.29
   1  -5   4   42.06    1.36
   1  -5   4   41.05    1.10
  -1   5  -4   39.63    1.36
   1  -5   4   38.55    1.27
  -1   5  -4   39.57    1.22
  -1   5  -4   40.07    1.39
  -1   5  -4   39.39    1.29
   1  -5   5   30.05    1.20
   1  -5   5   28.37    1.06
  -1   5  -5   31.92    0.95
  -1   5  -5   28.26    1.19
  -1   5  -5   28.37    1.17
  -1   5  -5   29.15    1.10
   1  -5   5   29.25    1.18
  -1   5  -5   26.96    1.13
  -1   5  -6   91.44    2.26
   1  -5   6   96.20    2.40
  -1   5  -6   91.34    2.30
  -1   5  -6   89.79    2.35
   1  -5   6   94.54    1.98
  -1   5  -6   93.39    2.09
   1  -5   6   94.31    2.26
   1  -5   6   91.04    2.04
   1  -5   6   92.38    2.36
  -1   5  -6   91.48    1.95
  -1   5  -7  256.83    4.47
  -1   5  -7  265.47    4.68
  -1   5  -7  261.65    4.39
  -1   5  -7  254.59    4.08
   1  -5   7  265.49    4.64
   1  -5   7  256.66    4.33
   1  -5   7  264.92    4.67
   1  -5   7  264.23    4.68
   1  -5   7  260.42    4.17
   1  -5   8   61.18    1.65
   1  -5   8   61.03    1.74
   1  -5   8   63.77    1.83
  -1   5  -8   61.98    1.75
  -1   5  -8   67.52    1.58
   1  -5   8   62.73    1.79
  -1   5  -8   60.79    1.54
   1  -5   9   17.83    0.74
  -1   5  -9   18.15    0.75
   1  -5   9   18.29    0.82
   1  -5   9   18.50    0.77
   1  -5   9   17.46    0.72
   1  -4  -8  115.64    2.01
  -1   4   8  123.45    2.16
  -1   4   8  140.69    2.55
  -1   4   8  135.61    2.47
  -1   4   7  107.62    2.47
  -1   4   7  108.38    2.52
  -1   4   7  103.69    2.23
  -1   4   6   29.93    1.20
  -1   4   6   34.51    1.38
  -1   4   6   29.75    1.13
  -1   4   6   33.29    1.32
  -1   4   6   30.19    1.32
  -1   4   5    1.03    0.27
  -1   4   5    0.79    0.19
  -1   4   5    1.08    0.24
  -1   4   5    1.01    0.23
  -1   4   5    0.94    0.23
  -1   4   4   92.27    2.23
  -1   4   4   89.49    2.13
  -1   4   4   86.59    2.03
  -1   4   4   88.86    1.95
  -1   4   4   89.47    2.01
   1  -4  -3  149.33    2.38
  -1   4   3  153.37    2.71
  -1   4   3  148.87    2.48
  -1   4   3  142.19    2.75
  -1   4   3  148.72    2.76
  -1   4   3  149.28    2.67
  -1   4   3  151.61    2.82
  -1   4   2    3.79    0.25
   1  -4  -2    2.46    0.24
   1  -4  -1    1.86    0.21
   1  -4  -1    1.75    0.15
   1  -4  -1    1.70    0.12
  -1   4   0   33.12    0.94
  -1   4   0   32.57    0.72
  -1   4   0   34.06    0.91
   1  -4   0   33.21    0.90
  -1   4   0   34.60    1.00
   1  -4   0   31.88    0.80
  -1   4   0   29.54    0.58
   1  -4   0   30.32    0.73
  -1   4   0   32.87    0.89
  -1   4  -1  316.69    4.22
   1  -4   1  324.05    4.50
   1  -4   1  333.10    4.47
  -1   4  -1  311.56    4.64
  -1   4  -1  331.85    4.62
  -1   4  -1  323.28    4.75
  -1   4  -1  318.36    4.42
  -1   4  -1  327.68    4.39
   1  -4   1  333.33    4.53
  -1   4  -1  314.72    4.64
   1  -4   2  248.24    3.05
   1  -4   2  254.98    3.33
  -1   4  -2  252.81    3.38
  -1   4  -2  256.84    3.47
  -1   4  -2  252.36    3.48
   1  -4   2  258.03    3.38
  -1   4  -2  260.95    3.60
   1  -4   2  246.36    3.38
  -1   4  -2  246.48    3.56
  -1   4  -2  239.32    3.34
  -1   4  -3  259.19    3.42
  -1   4  -3  266.19    3.97
  -1   4  -3  240.18    3.32
   1  -4   3  242.36    3.87
   1  -4   3  251.49    3.85
  -1   4  -3  252.18    4.07
  -1   4  -3  251.08    3.89
  -1   4  -3  242.32    3.83
  -1   4  -3  252.43    3.92
  -1   4  -3  261.83    3.92
  -1   4  -3  246.73    3.35
   1  -4   3  239.05    3.82
  -1   4  -3  245.55    3.34
  -1   4  -4   14.76    0.49
  -1   4  -4   15.07    0.76
  -1   4  -4   16.81    0.63
   1  -4   4   15.02    0.72
  -1   4  -4   15.78    0.73
  -1   4  -4   16.58    0.72
  -1   4  -4   16.51    0.79
  -1   4  -4   15.02    0.50
  -1   4  -4   16.03    0.66
   1  -4   4   17.55    0.78
   1  -4   5  129.28    2.53
  -1   4  -5  128.95    2.38
   1  -4   5  130.18    2.30
   1  -4   5  125.73    2.66
   1  -4   5  121.34    2.30
  -1   4  -5  119.92    2.50
  -1   4  -5  127.79    2.45
  -1   4  -5  124.65    2.61
   1  -4   5  125.39    2.66
  -1   4  -5  125.60    2.26
  -1   4  -5  127.32    2.69
  -1   4  -6   14.75    0.84
   1  -4   6   15.83    0.87
   1  -4   6   15.78    0.72
  -1   4  -6   15.34    0.80
   1  -4   6   14.71    0.64
  -1   4  -6   15.04    0.68
  -1   4  -6   15.27    0.73
   1  -4   6   15.23    0.76
   1  -4   6   16.11    0.84
  -1   4  -6   15.10    0.77
   1  -4   6   15.23    0.85
   1  -4   7   38.41    1.45
  -1   4  -7   37.05    1.24
   1  -4   7   38.48    1.15
   1  -4   7   36.54    1.20
   1  -4   7   38.65    1.36
   1  -4   7   36.70    1.19
  -1   4  -7   37.35    1.41
   1  -4   7   39.22    1.43
   1  -4   7   38.80    1.43
  -1   4  -7   40.23    1.30
   1  -4   8    2.87    0.40
   1  -4   8    2.56    0.36
   1  -4   8    2.59    0.35
   1  -4   8    2.99    0.33
  -1   4  -8    2.39    0.28
  -1   4  -8    2.91    0.37
  -1   4  -8    2.70    0.32
   1  -4   8    3.16    0.40
   1  -4   9    4.00    0.32
   1  -4   9    5.28    0.44
  -1   4  -9    4.34    0.40
   1  -4   9    4.98    0.45
  -1   4  -9    3.71    0.31
   1  -4   9    3.90    0.37
   1  -4   9    3.87    0.42
   1  -4  10   17.62    0.67
  -1   4 -10   18.25    0.64
  -1   3   9  135.62    1.96
  -1   3   8   32.84    1.06
  -1   3   8   34.32    1.04
  -1   3   8   35.64    1.14
   1  -3  -8   31.29    1.06
  -1   3   8   35.92    1.18
  -1   3   7   13.79    0.81
  -1   3   7   13.38    0.72
   1  -3  -7   13.37    0.76
  -1   3   7   13.07    0.74
  -1   3   7   14.14    0.81
  -1   3   6   16.74    0.94
  -1   3   6   16.47    0.80
  -1   3   6   18.11    0.86
  -1   3   6   17.12    0.82
  -1   3   5   38.66    1.26
  -1   3   5   37.14    1.20
  -1   3   5   38.33    1.28
  -1   3   5   37.23    1.36
  -1   3   5   36.45    1.13
  -1   3   5   37.66    1.21
  -1   3   5   39.33    1.33
  -1   3   4   98.67    2.19
  -1   3   4   89.89    1.88
  -1   3   4   98.58    1.97
  -1   3   4   95.01    2.00
  -1   3   4   95.52    2.07
  -1   3   4   96.34    2.00
  -1   3   4   95.97    1.92
   1  -3  -3   71.28    1.41
   1  -3  -3   71.21    1.45
   1  -3  -3   70.22    1.36
  -1   3   3   74.02    1.40
   1  -3  -2  139.70    2.18
   1  -3  -2  147.70    2.26
   1  -3  -2  140.86    2.32
   1  -3  -2  149.07    1.95
   1  -3  -2  143.13    2.54
   1  -3  -2  145.65    1.93
   1  -3  -2  142.00    2.18
   1  -3  -1  132.49    1.82
   1  -3  -1  140.62    1.93
   1  -3  -1  132.95    1.84
   1  -3  -1  135.43    2.28
   1  -3  -1  134.65    2.14
  -1   3   1  133.24    1.89
   1  -3  -1  137.39    1.93
   1  -3  -1  131.10    1.84
  -1   3   1  134.33    1.83
  -1   3   0  130.01    2.12
   1  -3   0  133.35    2.11
   1  -3   0  124.20    1.59
   1  -3   0  134.81    1.97
   1  -3   0  129.15    1.90
  -1   3   0  127.22    1.78
  -1   3   0  136.65    1.98
   1  -3   0  131.74    1.62
  -1   3   0  131.30    1.91
   1  -3   1  607.08    6.99
  -1   3  -1  538.32    6.45
   1  -3   1  593.88    6.99
  -1   3  -1  574.34    7.09
  -1   3  -1  510.12    6.45
  -1   3  -1  565.88    6.94
  -1   3  -1  506.04    6.46
  -1   3  -1  558.86    6.96
  -1   3  -1  560.53    7.00
  -1   3  -1  574.51    6.93
  -1   3  -1  574.34    6.77
   1  -3   1  585.37    6.89
  -1   3  -2   37.69    0.93
  -1   3  -2   39.20    0.93
  -1   3  -2   37.20    0.70
  -1   3  -2   37.80    0.69
   1  -3   2   39.62    0.94
  -1   3  -2   37.55    0.91
  -1   3  -2   39.76    0.98
   1  -3   2   37.13    0.74
   1  -3   2   40.91    0.92
   1  -3   2   37.48    0.94
  -1   3  -2   37.00    0.93
  -1   3  -2   37.92    0.71
  -1   3  -2   37.39    0.97
  -1   3  -3   77.39    1.31
  -1   3  -3   73.62    1.31
  -1   3  -3   77.53    1.63
  -1   3  -3   75.58    1.31
  -1   3  -3   78.72    1.61
  -1   3  -3   76.73    1.51
  -1   3  -3   76.22    1.51
   1  -3   3   69.20    1.51
   1  -3   3   77.44    1.54
   1  -3   3   76.48    1.52
   1  -3   3   76.41    1.52
  -1   3  -3   71.75    1.47
  -1   3  -3   67.87    1.50
  -1   3  -3   80.80    1.53
  -1   3  -4   22.14    0.69
   1  -3   4   23.16    0.81
  -1   3  -4   22.27    0.66
  -1   3  -4   23.26    0.75
  -1   3  -4   22.58    0.85
  -1   3  -4   21.12    0.66
   1  -3   4   22.50    0.70
  -1   3  -4   21.91    0.80
   1  -3   4   22.98    0.82
  -1   3  -4   21.83    0.77
  -1   3  -4   22.99    0.84
  -1   3  -4   21.61    0.70
   1  -3   4   22.26    0.66
   1  -3   4   22.95    0.82
  -1   3  -4   24.73    0.77
  -1   3  -5    5.05    0.32
  -1   3  -5    4.85    0.38
   1  -3   5    5.32    0.42
  -1   3  -5    4.58    0.32
  -1   3  -5    4.69    0.30
   1  -3   5    4.60    0.41
   1  -3   5    5.29    0.44
   1  -3   5    4.81    0.37
  -1   3  -5    5.27    0.41
  -1   3  -5    4.70    0.34
  -1   3  -5    5.00    0.43
   1  -3   6   57.91    1.69
   1  -3   6   58.52    1.63
  -1   3  -6   55.11    1.64
   1  -3   6   56.36    1.47
  -1   3  -6   57.80    1.55
   1  -3   6   55.90    1.54
   1  -3   6   55.76    1.56
  -1   3  -6   52.24    1.40
  -1   3  -6   55.70    1.52
   1  -3   6   60.10    1.70
   1  -3   6   58.05    1.39
   1  -3   7    3.53    0.41
   1  -3   7    3.98    0.41
   1  -3   7    4.02    0.46
   1  -3   7    4.20    0.47
  -1   3  -7    3.13    0.40
   1  -3   7    4.49    0.47
  -1   3  -7    4.34    0.39
  -1   3  -7    3.78    0.34
  -1   3  -7    3.93    0.41
   1  -3   7    4.60    0.43
   1  -3   8  221.54    4.19
  -1   3  -8  228.07    3.96
   1  -3   8  215.44    3.96
   1  -3   8  223.29    4.18
  -1   3  -8  235.49    4.19
   1  -3   8  218.03    3.99
   1  -3   8  220.27    4.24
   1  -3   8  227.61    4.14
  -1   3  -8  225.59    3.66
  -1   3  -9  103.19    2.29
   1  -3   9   93.95    2.13
   1  -3   9  101.99    2.42
   1  -3   9  100.85    2.24
   1  -3   9  100.83    2.28
  -1   3  -9   99.08    2.11
   1  -3   9  102.10    2.42
  -1   3 -10   44.00    1.02
   1  -3  10   50.62    1.36
  -1   3 -10   50.43    1.22
   1  -3  10   51.23    1.15
   1  -3  10   44.11    1.09
  -1   2   9   16.13    0.64
   1  -2  -9   14.25    0.59
  -1   2   9   15.04    0.59
  -1   2   8    1.80    0.25
  -1   2   8    2.21    0.30
   1  -2  -8    2.23    0.31
  -1   2   8    1.97    0.30
  -1   2   7    1.87    0.31
  -1   2   7    1.54    0.28
  -1   2   7    1.68    0.29
  -1   2   7    1.36    0.26
   1  -2  -7    1.61    0.30
  -1   2   7    1.53    0.28
  -1   2   6   81.95    2.04
  -1   2   6   83.96    2.08
  -1   2   6   82.98    1.84
   1  -2  -6   86.16    1.83
  -1   2   6   80.99    2.03
  -1   2   6   84.75    2.14
  -1   2   6   83.08    2.11
  -1   2   5   81.33    1.89
  -1   2   5   82.59    2.00
  -1   2   5   80.90    1.95
  -1   2   5   83.17    1.91
  -1   2   5   79.59    1.89
  -1   2   5   82.17    1.88
  -1   2   5   82.11    1.90
  -1   2   4  290.73    4.33
  -1   2   4  291.88    4.38
  -1   2   4  289.40    4.43
   1  -2  -4  300.10    4.30
  -1   2   4  292.00    4.35
   1  -2  -4  274.77    4.37
  -1   2   4  304.56    4.51
  -1   2   4  285.86    4.09
   1  -2  -4  286.77    4.18
   1  -2  -3   24.28    0.75
   1  -2  -3   24.19    0.75
   1  -2  -3   23.52    0.49
   1  -2  -3   23.79    0.73
   1  -2  -3   24.10    0.65
  -1   2   3   24.68    0.76
   1  -2  -3   23.80    0.50
  -1   2   3   24.25    0.72
   1  -2  -3   24.82    0.82
   1  -2  -2  239.83    3.55
   1  -2  -2  251.59    3.47
  -1   2   2  247.86    3.50
   1  -2  -2  248.93    3.47
   1  -2  -2  247.99    3.30
   1  -2  -2  252.27    3.50
   1  -2  -2  247.78    3.18
   1  -2  -1  319.72    4.02
   1  -2  -1  313.99    4.09
   1  -2  -1  315.62    4.09
  -1   2   1  321.74    4.14
   1  -2  -1  315.98    4.21
   1  -2  -1  317.91    4.00
  -1   2   1  327.22    3.95
  -1   2   1  312.13    4.04
  -1   2   1  310.10    4.12
   1  -2   0  129.34    1.81
  -1   2   0  126.66    1.73
  -1   2   0  131.92    1.83
  -1   2   0  129.09    1.77
  -1   2   0  127.34    1.74
   1  -2   0  133.89    1.86
   1  -2   1    8.46    0.30
   1  -2   1    8.61    0.23
   1  -2   1    8.80    0.33
  -1   2  -1    8.89    0.33
  -1   2  -1    8.40    0.32
  -1   2  -2  180.83    2.41
   1  -2   2  172.98    2.30
   1  -2   2  180.66    2.43
   1  -2   2  179.71    2.60
  -1   2  -2  169.94    2.56
   1  -2   2  178.68    2.63
  -1   2  -2  177.76    2.62
  -1   2  -3   92.44    1.59
  -1   2  -3   92.83    1.71
  -1   2  -3   90.12    1.69
   1  -2   3   97.83    1.67
  -1   2  -3   95.77    1.74
   1  -2   3   98.26    1.68
  -1   2  -3   96.63    1.57
   1  -2   3   91.88    1.69
  -1   2  -3   94.45    1.66
  -1   2  -3   94.66    1.57
   1  -2   3   99.30    1.69
  -1   2  -4   58.25    1.32
  -1   2  -4   60.09    1.15
  -1   2  -4   60.51    1.24
  -1   2  -4   58.57    1.34
   1  -2   4   60.02    1.32
   1  -2   4   61.16    1.30
  -1   2  -4   58.67    1.27
  -1   2  -4   58.03    1.31
  -1   2  -4   56.85    1.36
  -1   2  -4   59.47    1.23
   1  -2   4   61.61    1.36
   1  -2   4   55.39    1.23
   1  -2   4   64.11    1.28
   1  -2   4   60.82    1.29
  -1   2  -4   58.55    1.11
   1  -2   4   61.71    1.35
  -1   2  -4   61.42    1.25
  -1   2  -5  146.71    2.62
  -1   2  -5  149.99    2.55
   1  -2   5  156.38    2.73
  -1   2  -5  156.28    2.73
  -1   2  -5  146.27    2.65
  -1   2  -5  156.81    2.25
   1  -2   5  155.80    2.81
  -1   2  -5  154.15    2.83
  -1   2  -5  143.79    2.65
   1  -2   5  154.65    2.63
  -1   2  -5  155.69    2.30
   1  -2   5  164.67    2.85
  -1   2  -6  104.00    2.34
   1  -2   6  109.68    2.39
  -1   2  -6  108.21    2.19
   1  -2   6  107.94    2.32
  -1   2  -6  107.17    2.30
   1  -2   6  109.04    2.34
   1  -2   6  106.83    2.24
   1  -2   6  109.11    2.39
   1  -2   7  173.31    3.43
   1  -2   7  184.04    3.50
  -1   2  -7  174.59    3.11
   1  -2   7  176.50    3.49
   1  -2   7  182.39    3.52
   1  -2   7  178.60    3.49
  -1   2  -7  176.30    3.42
  -1   2  -7  175.35    3.46
   1  -2   7  175.43    3.38
   1  -2   8  192.73    3.89
  -1   2  -8  199.44    3.80
  -1   2  -8  196.65    3.75
   1  -2   8  197.36    3.90
   1  -2   8  195.88    3.79
   1  -2   8  202.23    3.83
  -1   2  -8  197.56    3.27
   1  -2   8  198.39    3.77
   1  -2   8  197.94    3.80
   1  -2   9   33.06    1.31
   1  -2   9   32.46    1.17
   1  -2   9   32.83    1.18
   1  -2   9   34.66    1.26
  -1   2  -9   35.10    1.21
  -1   2  -9   36.59    1.28
   1  -2   9   32.72    1.26
   1  -2   9   33.16    1.30
   1  -2  10    5.97    0.47
  -1   2 -10    5.62    0.38
   1  -2  10    5.80    0.37
  -1   2 -10    6.65    0.42
   1  -2  10    5.92    0.41
   1  -2  10    6.62    0.48
   1  -1  -9    4.51    0.36
  -1   1   9    5.21    0.42
  -1   1   9    4.57    0.36
  -1   1   8   77.85    1.75
  -1   1   8   76.05    1.85
  -1   1   8   74.82    2.03
  -1   1   8   76.05    1.98
  -1   1   8   74.95    1.96
  -1   1   7   66.29    1.78
  -1   1   7   70.11    1.81
   1  -1  -7   70.01    2.02
  -1   1   7   66.80    1.90
   1  -1  -7   69.80    1.64
  -1   1   7   69.18    1.82
  -1   1   7   69.20    1.98
  -1   1   7   72.81    2.02
  -1   1   6  216.41    4.02
  -1   1   6  210.30    3.96
  -1   1   6  213.54    3.75
   1  -1  -6  215.61    3.59
  -1   1   6  218.54    3.92
  -1   1   6  209.15    3.69
   1  -1  -5   62.18    1.49
  -1   1   5   65.63    1.73
  -1   1   5   63.13    1.73
  -1   1   5   65.87    1.64
  -1   1   5   67.73    1.59
  -1   1   5   64.98    1.56
   1  -1  -4   42.82    1.05
   1  -1  -4   45.62    1.13
   1  -1  -4   45.73    0.93
   1  -1  -4   46.27    1.19
  -1   1   4   46.44    1.28
   1  -1  -4   45.24    1.26
  -1   1   4   44.93    1.08
  -1   1   4   46.85    1.26
   1  -1  -3  377.07    5.27
  -1   1   3  387.09    4.78
   1  -1  -3  384.89    5.00
  -1   1   3  392.82    5.34
   1  -1  -3  384.31    5.25
  -1   1   3  396.63    5.23
   1  -1  -3  388.24    5.42
  -1   1   3  378.78    5.37
  -1   1   3  392.47    5.39
   1  -1  -3  392.35    5.19
   1  -1  -3  377.13    5.30
   1  -1  -2    3.39    0.23
  -1   1   2    3.08    0.23
   1  -1  -2    3.17    0.21
  -1   1   2    2.91    0.13
  -1   1   2    3.35    0.23
   1  -1  -2    3.11    0.22
  -1   1   2    3.02    0.23
   1  -1  -2    3.26    0.23
   1  -1  -1  703.70    8.52
  -1   1   1  675.77    8.60
   1  -1  -1  698.70    8.60
  -1   1   1  679.42    8.54
  -1   1   1  679.83    8.61
  -1   1   1  705.41    8.62
   1  -1  -1  692.87    8.60
   1  -1  -1  688.64    8.59
  -1   1   0    0.74    0.07
   1  -1   0    0.75    0.07
  -1   1   0    0.63    0.07
  -1   1   0    0.72    0.08
   1  -1   0    0.62    0.07
   1  -1   0    0.66    0.07
   1  -1   0    0.92    0.09
  -1   1   0    0.52    0.06
   1  -1   0    0.67    0.07
  -1   1  -1    3.41    0.17
   1  -1   1    3.85    0.18
   1  -1   1    3.76    0.15
   1  -1   2  582.98    7.24
   1  -1   2  582.92    7.18
  -1   1  -3  437.71    5.80
  -1   1  -3  442.87    5.73
  -1   1  -3  432.65    5.81
  -1   1  -3  450.20    5.75
   1  -1   3  447.65    5.75
   1  -1   3  451.80    5.78
   1  -1   3  459.71    5.82
   1  -1   4  238.90    3.48
   1  -1   4  238.66    3.38
   1  -1   4  247.65    3.49
  -1   1  -4  231.22    3.48
  -1   1  -4  238.00    3.42
  -1   1  -4  227.34    3.43
   1  -1   4  238.66    3.47
   1  -1   4  243.18    3.43
  -1   1  -4  234.24    3.43
   1  -1   4  237.20    3.36
  -1   1  -4  223.61    3.43
  -1   1  -4  233.73    3.52
   1  -1   4  234.38    3.49
  -1   1  -4  228.76    3.33
   1  -1   5   23.03    0.83
   1  -1   5   22.99    0.74
   1  -1   5   25.00    0.86
  -1   1  -5   26.01    0.90
  -1   1  -5   22.40    0.77
  -1   1  -5   24.38    0.84
   1  -1   5   23.30    0.73
  -1   1  -5   23.25    0.78
   1  -1   5   22.57    0.69
   1  -1   5   25.06    0.86
  -1   1  -5   21.98    0.76
   1  -1   6   89.35    1.99
  -1   1  -6   84.37    1.81
   1  -1   6   88.50    2.02
  -1   1  -6   84.43    2.02
   1  -1   6   88.53    2.06
   1  -1   6   87.47    2.01
   1  -1   6   86.74    1.95
  -1   1  -7   78.03    2.08
  -1   1  -7   84.86    2.15
   1  -1   7   81.07    2.07
   1  -1   7   80.48    2.12
   1  -1   7   86.14    2.12
   1  -1   7   83.56    2.12
   1  -1   7   79.52    2.06
   1  -1   7   81.77    2.07
  -1   1  -7   81.66    1.80
  -1   1  -8   10.18    0.72
   1  -1   8    9.18    0.68
   1  -1   8   10.85    0.75
   1  -1   8   10.26    0.69
   1  -1   8    9.95    0.73
  -1   1  -8   10.48    0.53
  -1   1  -8   10.98    0.72
   1  -1   8    9.67    0.67
   1  -1   8   10.45    0.74
  -1   1  -9    4.71    0.46
   1  -1   9    4.59    0.49
  -1   1  -9    4.20    0.42
   1  -1   9    4.12    0.40
   1  -1   9    4.13    0.45
   1  -1   9    3.83    0.46
   1  -1  10    0.59    0.16
   1  -1  10    0.76    0.19
  -1   1 -10    0.62    0.15
  -1   1 -10    0.39    0.13
   1  -1  10    0.45    0.16
  -1   0   9  108.68    2.18
   1   0  -9  114.37    2.28
  -1   0   9  111.28    2.37
  -1   0   9  111.55    2.25
   1   0  -8  187.12    3.57
   1   0  -8  181.34    3.07
  -1   0   8  172.45    3.47
  -1   0   8  181.01    3.61
  -1   0   8  180.34    3.45
  -1   0   8  175.93    3.45
  -1   0   7  150.54    2.88
  -1   0   7  154.04    3.32
  -1   0   7  160.31    2.91
  -1   0   7  152.46    3.30
   1   0  -7  160.97    3.39
   1   0  -7  160.09    2.94
  -1   0   7  155.25    2.93
  -1   0   7  155.76    3.28
  -1   0   6    1.03    0.20
  -1   0   6    1.14    0.25
   1   0  -6    1.37    0.28
  -1   0   6    1.27    0.23
  -1   0   6    1.23    0.25
  -1   0   6    1.27    0.23
   1   0  -6    1.32    0.23
  -1   0   6    1.14    0.25
  -1   0   5    6.96    0.53
  -1   0   5    8.16    0.52
  -1   0   5    7.39    0.51
  -1   0   5    7.56    0.44
  -1   0   5    8.65    0.46
  -1   0   5    7.92    0.57
   1   0  -5    7.57    0.47
  -1   0   5    8.30    0.47
   1   0  -4  160.86    2.70
  -1   0   4  172.40    2.95
   1   0  -4  165.56    2.63
  -1   0   4  169.35    2.74
  -1   0   4  163.52    2.45
   1   0  -4  167.80    2.78
  -1   0   4  172.57    2.90
   1   0  -4  176.55    2.89
   1   0  -4  171.07    2.95
   1   0  -4  169.97    2.75
  -1   0   4  174.92    3.00
  -1   0   3  189.21    2.87
   1   0  -3  185.69    2.88
   1   0  -3  188.17    2.92
   1   0  -3  189.04    2.87
  -1   0   3  190.25    2.91
   1   0  -3  185.73    2.89
  -1   0   3  191.37    3.01
  -1   0   3  183.27    2.94
  -1   0   3  187.19    2.65
   1   0  -3  182.62    2.98
   1   0  -3  184.91    2.75
  -1   0   3  186.32    2.95
  -1   0   2   23.26    0.67
   1   0  -2   22.76    0.64
   1   0  -2   22.93    0.64
   1   0  -2   22.39    0.58
  -1   0   2   22.64    0.67
  -1   0   2   22.02    0.63
   1   0  -2   21.59    0.63
   1   0  -1    1.01    0.11
  -1   0   1    0.98    0.11
   1   0  -1    1.11    0.12
   1   0  -1    1.00    0.11
   1   0   0   91.94    1.29
   1   0   0   91.15    1.28
  -1   0   0   91.99    1.29
   1   0   0   92.06    1.29
  -1   0  -1  237.15    2.98
   1   0   1  239.87    2.98
   1   0   1  231.98    2.98
  -1   0  -1  239.16    2.97
  -1   0  -2  674.41    7.94
  -1   0  -2  651.67    7.90
   1   0   2  678.72    7.94
   1   0   2  658.48    7.91
  -1   0  -3   28.58    0.60
   1   0   3   26.97    0.68
   1   0   3   27.67    0.61
  -1   0  -3   27.30    0.63
   1   0   3   27.13    0.61
   1   0   3   26.81    0.61
  -1   0  -3   27.13    0.67
   1   0   4   20.61    0.59
  -1   0  -4   20.84    0.66
   1   0   4   21.47    0.65
  -1   0  -4   20.78    0.69
  -1   0  -4   21.70    0.56
   1   0   4   20.70    0.66
  -1   0  -4   24.93    0.65
  -1   0  -4   20.51    0.62
   1   0   4   20.58    0.63
   1   0   4   21.44    0.57
  -1   0  -4   20.54    0.66
   1   0   4   22.24    0.70
  -1   0  -4   18.08    0.37
   1   0   4   21.05    0.57
  -1   0  -5    8.13    0.43
   1   0   5    8.41    0.46
  -1   0  -5    8.47    0.49
   1   0   5    8.38    0.48
  -1   0  -5    7.93    0.39
   1   0   5    9.23    0.42
  -1   0  -5    7.34    0.43
   1   0   5    8.43    0.47
  -1   0  -6   41.94    1.14
   1   0   6   45.17    1.30
  -1   0  -6   45.38    1.37
   1   0   6   43.67    1.35
   1   0   6   44.24    1.30
   1   0   6   44.92    1.28
   1   0   6   43.93    1.27
   1   0   6   44.52    1.30
   1   0   7  135.99    2.77
  -1   0  -7  133.97    2.83
   1   0   7  127.72    2.85
   1   0   7  132.11    2.70
   1   0   7  130.17    2.78
   1   0   7  129.21    2.80
   1   0   7  130.19    2.73
  -1   0  -7  133.41    2.44
  -1   0  -8   13.56    0.80
   1   0   8   14.48    0.86
   1   0   8   14.20    0.76
   1   0   8   13.22    0.77
   1   0   8   13.43    0.84
  -1   0  -8   13.93    0.85
   1   0   8   13.29    0.80
   1   0   8   12.77    0.83
   1   0   9   32.83    1.33
   1   0   9   32.16    1.28
   1   0   9   31.91    1.26
  -1   0  -9   33.06    1.20
  -1   0  -9   33.32    1.30
   1   0   9   31.79    1.11
   1   0   9   32.97    1.33
   1   0  10   52.51    1.50
   1   0  10   51.45    1.36
   1   0  10   48.70    1.38
   1   0  10   53.44    1.45
  -1   0 -10   51.99    1.29
  -1   0 -10   52.37    1.41
   1   1  -9   87.32    1.94
  -1  -1   9   89.38    2.00
   1   1  -9   83.58    1.53
  -1  -1   9   87.90    1.95
  -1  -1   9   88.76    2.05
   1   1  -8   32.56    1.27
  -1  -1   8   31.15    1.25
   1   1  -8   31.62    1.06
  -1  -1   8   31.62    1.24
  -1  -1   8   29.87    1.10
  -1  -1   8   33.30    1.29
  -1  -1   8   31.12    1.28
   1   1  -7    0.51    0.17
  -1  -1   7    0.84    0.25
  -1  -1   7    0.49    0.20
   1   1  -7    0.70    0.24
  -1  -1   7    0.83    0.21
  -1  -1   7    0.61    0.22
   1   1  -6   30.18    1.08
   1   1  -6   30.13    1.23
  -1  -1   6   29.22    1.22
  -1  -1   6   30.80    1.19
  -1  -1   6   30.70    0.94
  -1  -1   6   30.68    1.10
  -1  -1   6   29.88    1.22
  -1  -1   6   29.70    1.18
  -1  -1   6   31.13    0.94
   1   1  -5   50.70    1.20
  -1  -1   5   58.47    1.61
  -1  -1   5   57.95    1.53
   1   1  -5   54.33    1.57
  -1  -1   5   54.12    1.39
  -1  -1   5   57.43    1.61
   1   1  -5   53.94    1.41
  -1  -1   5   57.81    1.58
   1   1  -4  257.63    3.98
   1   1  -4  274.57    4.10
   1   1  -4  270.57    4.15
  -1  -1   4  272.40    4.20
  -1  -1   4  273.15    3.68
  -1  -1   4  265.96    3.97
  -1  -1   4  283.86    4.28
  -1  -1   4  268.58    3.86
   1   1  -4  257.02    3.96
  -1  -1   4  276.16    4.17
   1   1  -3  189.97    3.04
   1   1  -3  192.21    2.98
  -1  -1   3  195.44    3.04
   1   1  -3  189.38    2.89
   1   1  -3  189.59    2.96
  -1  -1   3  192.82    2.99
  -1  -1   3  188.19    2.86
  -1  -1   3  196.39    2.95
   1   1  -3  185.24    2.92
  -1  -1   3  202.26    3.01
  -1  -1   3  196.61    3.07
   1   1  -3  197.43    3.00
   1   1  -2    5.20    0.29
  -1  -1   2    5.16    0.30
  -1  -1   2    5.31    0.29
  -1  -1   2    5.29    0.30
   1   1  -2    4.85    0.29
   1   1  -2    5.08    0.28
   1   1  -2    5.29    0.29
   1   1  -2    5.06    0.29
  -1  -1   1   41.70    0.82
   1   1  -1   41.82    0.81
   1   1  -1   41.45    0.83
  -1  -1   1   41.79    0.81
  -1  -1   1   41.19    0.81
  -1  -1   0  676.36    8.56
  -1  -1   0  693.67    8.55
   1   1   0  730.43    8.55
   1   1   0  722.79    8.56
  -1  -1   0  700.52    8.54
  -1  -1   0  723.77    8.54
   1   1   0  672.20    8.55
   1   1   0  754.95    8.56
  -1  -1  -1  628.84    7.56
   1   1   1  628.14    7.55
  -1  -1  -1  632.81    7.51
   1   1   1  616.61    7.57
  -1  -1  -2   70.48    0.98
  -1  -1  -2   67.93    1.13
   1   1   2   70.11    0.95
   1   1   2   67.00    0.92
   1   1   2   69.56    1.12
  -1  -1  -2   69.27    1.06
  -1  -1  -3   35.99    0.70
   1   1   3   35.81    0.82
  -1  -1  -3   36.79    0.65
  -1  -1  -3   37.52    0.87
  -1  -1  -3   36.55    0.64
  -1  -1  -3   37.02    0.83
   1   1   3   37.70    0.69
   1   1   3   36.37    0.64
   1   1   3   37.64    0.65
  -1  -1  -4   48.21    1.17
   1   1   4   53.22    1.15
  -1  -1  -4   49.32    0.90
  -1  -1  -4   50.00    1.12
  -1  -1  -4   49.56    1.13
   1   1   4   51.18    0.87
   1   1   4   50.42    0.97
   1   1   4   49.57    1.16
  -1  -1  -4   48.40    0.91
  -1  -1  -5  416.59    5.78
  -1  -1  -5  406.88    5.89
   1   1   5  428.03    5.46
  -1  -1  -5  414.80    5.58
  -1  -1  -5  411.37    5.64
   1   1   5  435.89    5.80
  -1  -1  -5  409.13    5.31
   1   1   5  418.89    5.22
   1   1   5  418.36    5.68
  -1  -1  -5  397.78    5.25
   1   1   5  410.95    5.86
   1   1   6  161.65    2.92
   1   1   6  156.87    2.80
   1   1   6  161.45    2.88
   1   1   6  159.97    2.94
   1   1   6  156.37    2.86
   1   1   6  159.76    2.77
   1   1   6  162.10    3.04
  -1  -1  -6  156.46    2.69
   1   1   7  153.65    3.10
   1   1   7  145.59    2.95
   1   1   7  154.27    2.99
   1   1   7  149.53    2.81
  -1  -1  -7  157.05    2.67
   1   1   7  153.04    3.01
   1   1   7  150.82    3.15
   1   1   7  145.87    2.89
  -1  -1  -7  157.72    3.13
   1   1   8  108.74    2.64
  -1  -1  -8  114.15    2.59
   1   1   8  110.01    2.69
   1   1   8  112.44    2.44
   1   1   8  106.48    2.68
   1   1   8  114.55    2.61
   1   1   9   24.60    1.14
   1   1   9   23.30    1.05
  -1  -1  -9   24.00    1.10
   1   1   9   26.82    1.17
   1   1   9   24.04    1.04
  -1  -1  -9   25.42    1.02
   1   1  10   31.05    1.10
  -1  -1 -10   31.71    1.05
  -1  -1 -10   30.78    0.91
   1   1  10   29.12    0.99
   1   1  10   31.37    0.97
   1   2  -9   52.35    1.18
   1   2  -9   55.99    1.44
  -1  -2   9   52.04    1.33
  -1  -2   9   54.90    1.40
  -1  -2   9   55.16    1.52
  -1  -2   9   55.70    1.51
  -1  -2   8    1.52    0.28
   1   2  -8    1.49    0.28
   1   2  -8    1.98    0.27
  -1  -2   8    1.56    0.30
  -1  -2   8    1.96    0.31
  -1  -2   8    1.59    0.30
  -1  -2   8    1.62    0.28
   1   2  -7    1.78    0.28
  -1  -2   7    1.93    0.33
  -1  -2   7    1.98    0.33
  -1  -2   7    1.91    0.33
  -1  -2   7    1.65    0.31
   1   2  -7    2.22    0.35
  -1  -2   7    2.06    0.32
  -1  -2   6   59.55    1.83
   1   2  -6   63.51    1.83
   1   2  -6   62.43    1.68
  -1  -2   6   60.70    1.80
  -1  -2   6   60.37    1.70
  -1  -2   6   61.67    1.83
  -1  -2   6   63.62    1.76
   1   2  -5  300.90    4.90
  -1  -2   5  308.90    4.76
  -1  -2   5  315.14    4.96
   1   2  -5  296.28    4.71
  -1  -2   5  294.21    4.90
  -1  -2   5  308.22    4.95
  -1  -2   4  232.68    3.59
   1   2  -4  231.67    3.69
  -1  -2   4  234.80    3.45
   1   2  -4  241.63    3.85
   1   2  -4  242.29    3.67
   1   2  -4  234.26    3.70
   1   2  -4  233.25    3.28
  -1  -2   4  246.80    3.86
   1   2  -4  234.00    3.71
  -1  -2   4  234.87    3.81
  -1  -2   4  228.88    3.79
   1   2  -3  215.98    3.33
   1   2  -3  210.20    3.33
  -1  -2   3  217.57    3.36
  -1  -2   3  214.78    3.36
   1   2  -3  216.66    3.30
   1   2  -3  213.29    3.36
  -1  -2   3  223.79    3.39
   1   2  -3  230.44    3.39
  -1  -2   3  219.47    3.32
  -1  -2   3  211.91    3.30
   1   2  -3  234.52    3.48
  -1  -2   3  234.08    3.43
  -1  -2   3  220.25    3.16
   1   2  -3  216.80    3.30
   1   2  -2  141.62    2.27
  -1  -2   2  144.47    2.24
  -1  -2   2  143.97    2.25
   1   2  -2  140.12    2.30
  -1  -2   2  141.14    2.26
   1   2  -2  145.10    2.21
   1   2  -2  143.21    2.22
  -1  -2   2  140.77    2.30
  -1  -2   1  108.98    1.69
   1   2  -1  107.24    1.61
  -1  -2   1  106.35    1.62
  -1  -2   1  109.38    1.62
   1   2  -1  107.46    1.68
   1   2   0  764.46    9.42
   1   2   0  797.54    9.26
  -1  -2   0  768.22    9.35
   1   2   0  813.07    9.43
  -1  -2   0  758.81    9.26
   1   2   0  765.32    9.32
  -1  -2   0  741.32    9.25
   1   2   1    8.05    0.30
  -1  -2  -1    7.97    0.22
   1   2   1    8.22    0.22
   1   2   1    8.20    0.23
   1   2   1    7.94    0.18
  -1  -2  -1    7.96    0.19
  -1  -2  -2   84.36    1.14
  -1  -2  -2   82.21    1.12
  -1  -2  -2   82.49    1.12
  -1  -2  -2   83.71    1.31
  -1  -2  -3   34.96    0.81
  -1  -2  -3   35.31    0.62
  -1  -2  -3   37.00    0.85
  -1  -2  -3   34.54    0.80
  -1  -2  -3   35.04    0.82
  -1  -2  -4  249.09    3.77
   1   2   4  255.48    3.55
  -1  -2  -4  248.33    3.70
   1   2   4  261.23    3.73
  -1  -2  -4  255.77    3.52
  -1  -2  -4  254.82    3.73
  -1  -2  -4  246.40    3.58
  -1  -2  -5  283.29    4.26
  -1  -2  -5  293.45    4.43
  -1  -2  -5  285.89    3.98
   1   2   5  291.33    4.25
  -1  -2  -5  289.44    3.96
   1   2   6  132.18    2.60
  -1  -2  -6  135.10    2.38
   1   2   6  131.16    2.66
   1   2   6  131.92    2.58
   1   2   6  126.21    2.65
   1   2   6  137.74    2.40
   1   2   6  130.62    2.49
   1   2   6  130.68    2.45
   1   2   6  131.24    2.43
   1   2   7   17.84    0.95
  -1  -2  -7   19.54    0.73
   1   2   7   17.80    0.89
   1   2   7   18.76    0.85
   1   2   7   18.42    0.93
   1   2   7   19.31    0.80
   1   2   7   19.43    0.92
   1   2   8   39.70    1.32
  -1  -2  -8   40.10    1.38
   1   2   8   37.81    1.39
   1   2   8   39.32    1.42
   1   2   8   37.49    1.47
   1   2   8   37.74    1.24
   1   2   9    3.97    0.45
   1   2   9    3.42    0.38
   1   2   9    3.89    0.42
  -1  -2  -9    3.50    0.36
  -1  -2  -9    3.83    0.43
   1   2   9    3.56    0.32
   1   2   9    3.28    0.34
  -1  -2 -10    1.71    0.18
   1   2  10    1.12    0.21
   1   2  10    1.05    0.17
  -1  -2 -10    1.08    0.19
  -1  -3   9   89.09    1.85
   1   3  -9   85.87    1.66
   1   3  -9   88.54    1.83
  -1  -3   9   89.09    1.98
  -1  -3   9   88.35    1.87
  -1  -3   9   88.72    1.89
  -1  -3   8   73.98    1.95
  -1  -3   8   69.34    1.90
   1   3  -8   71.41    1.77
  -1  -3   8   76.52    1.92
  -1  -3   8   71.55    1.99
  -1  -3   8   69.00    1.86
   1   3  -8   74.90    1.92
   1   3  -7   59.00    1.69
  -1  -3   7   59.51    1.84
  -1  -3   7   59.25    1.77
  -1  -3   7   59.73    1.85
   1   3  -7   59.10    1.81
  -1  -3   7   60.97    1.82
  -1  -3   7   57.73    1.72
  -1  -3   6  223.84    4.03
  -1  -3   6  216.77    3.86
  -1  -3   6  219.73    4.10
  -1  -3   6  219.17    4.13
  -1  -3   6  221.51    4.03
   1   3  -6  214.32    3.90
   1   3  -6  225.27    4.08
   1   3  -5   32.97    1.17
  -1  -3   5   33.04    1.15
  -1  -3   5   33.83    0.98
  -1  -3   5   33.30    1.24
  -1  -3   5   33.79    1.10
   1   3  -5   33.56    0.92
  -1  -3   5   34.80    1.26
   1   3  -5   35.32    1.24
  -1  -3   5   32.97    1.18
  -1  -3   4  246.06    4.07
   1   3  -4  250.32    3.77
   1   3  -4  247.61    4.04
  -1  -3   4  262.76    4.05
   1   3  -4  250.41    3.71
  -1  -3   4  241.96    3.92
  -1  -3   4  255.50    4.12
   1   3  -4  246.49    3.81
   1   3  -4  259.70    4.15
  -1  -3   4  243.46    3.86
  -1  -3   4  258.05    3.83
   1   3  -3    4.17    0.31
   1   3  -3    4.48    0.24
  -1  -3   3    4.54    0.35
   1   3  -3    5.54    0.33
   1   3  -3    5.00    0.33
  -1  -3   3    5.29    0.34
   1   3  -3    4.63    0.37
  -1  -3   3    5.41    0.36
   1   3  -3    5.44    0.33
  -1  -3   3    4.54    0.33
   1   3  -3    4.77    0.37
   1   3  -3    5.07    0.32
  -1  -3   3    4.78    0.36
   1   3  -3    4.57    0.35
  -1  -3   3    4.56    0.35
   1   3  -2   96.07    1.60
   1   3  -2   97.98    1.61
   1   3  -2   88.13    1.61
   1   3  -2   92.62    1.59
  -1  -3   2   90.08    1.77
   1   3  -2   91.72    1.77
   1   3  -2   95.20    1.77
  -1  -3   2   91.40    1.69
   1   3  -2   93.98    1.69
  -1  -3   2   88.76    1.60
   1   3  -2   92.22    1.54
   1   3  -2  100.89    1.74
  -1  -3   2   92.35    1.70
  -1  -3   2   94.11    1.70
   1   3  -2   91.59    1.75
   1   3  -1   28.33    0.70
   1   3  -1   28.47    0.69
  -1  -3   1   26.35    0.77
  -1  -3   1   27.73    0.71
  -1  -3   1   28.76    0.61
  -1  -3   1   28.57    0.62
   1   3  -1   26.91    0.60
   1   3  -1   29.56    0.78
   1   3   0   38.60    0.63
   1   3   0   40.90    0.75
  -1  -3   0   40.22    0.90
  -1  -3   0   42.42    0.66
   1   3   0   41.99    0.87
   1   3   0   39.36    0.87
  -1  -3   0   42.02    0.66
   1   3   1  115.54    1.85
  -1  -3  -1  116.24    1.75
   1   3   1  118.19    1.53
  -1  -3  -1  114.44    1.84
   1   3   1  118.10    1.64
  -1  -3  -2  509.46    6.54
  -1  -3  -2  506.38    6.10
  -1  -3  -2  508.03    6.20
  -1  -3  -2  486.45    6.13
  -1  -3  -2  503.41    6.23
  -1  -3  -3  214.60    2.79
  -1  -3  -3  212.03    3.02
  -1  -3  -3  213.43    3.04
  -1  -3  -3  212.79    3.03
  -1  -3  -3  214.97    3.20
  -1  -3  -4  124.23    2.14
  -1  -3  -4  122.72    2.08
  -1  -3  -4  123.79    2.13
  -1  -3  -4  126.73    2.13
   1   3   4  124.92    2.09
   1   3   5    3.43    0.34
   1   3   5    3.44    0.33
   1   3   5    4.68    0.33
  -1  -3  -5    3.37    0.28
   1   3   5    3.52    0.32
   1   3   5    3.91    0.34
  -1  -3  -5    3.46    0.30
   1   3   5    3.39    0.29
   1   3   6   11.85    0.66
   1   3   6   12.99    0.69
   1   3   6   12.46    0.59
   1   3   6   12.57    0.71
   1   3   6   12.96    0.65
   1   3   6   12.87    0.66
   1   3   6   11.50    0.70
   1   3   7   57.89    1.82
   1   3   7   60.98    1.43
   1   3   7   61.99    1.67
   1   3   7   59.42    1.67
   1   3   7   58.12    1.68
   1   3   7   61.02    1.80
   1   3   8   25.52    0.97
   1   3   8   26.64    1.21
  -1  -3  -8   27.21    1.09
   1   3   8   28.22    1.12
   1   3   8   25.48    1.05
   1   3   8   26.38    1.17
   1   3   9   10.04    0.67
  -1  -3  -9    9.18    0.52
   1   3   9    8.72    0.53
   1   3  10    6.66    0.42
  -1  -3 -10    5.98    0.39
   1   4  -9  109.51    2.01
  -1  -4   9  118.22    2.11
   1   4  -9  110.84    1.92
  -1  -4   9  115.68    2.22
  -1  -4   9  112.86    2.17
   1   4  -8   64.33    1.66
   1   4  -8   65.90    1.64
  -1  -4   8   63.99    1.74
  -1  -4   8   65.94    1.80
  -1  -4   8   63.69    1.78
  -1  -4   8   61.38    1.59
   1   4  -7   37.91    1.35
  -1  -4   7   36.47    1.39
  -1  -4   7   37.90    1.42
   1   4  -7   37.77    1.32
  -1  -4   7   36.86    1.24
  -1  -4   7   38.27    1.41
  -1  -4   7   38.23    1.28
   1   4  -6    5.84    0.52
  -1  -4   6    5.51    0.53
   1   4  -6    5.60    0.51
  -1  -4   6    5.99    0.47
  -1  -4   6    5.09    0.45
  -1  -4   6    5.61    0.53
   1   4  -6    5.84    0.38
  -1  -4   6    5.96    0.54
   1   4  -5    1.71    0.29
  -1  -4   5    2.34    0.34
  -1  -4   5    2.67    0.32
   1   4  -5    2.14    0.25
  -1  -4   5    2.19    0.32
  -1  -4   5    2.19    0.26
   1   4  -5    2.00    0.31
  -1  -4   5    2.87    0.37
  -1  -4   5    1.64    0.23
   1   4  -4   64.71    1.37
  -1  -4   4   71.21    1.78
  -1  -4   4   67.49    1.67
  -1  -4   4   67.40    1.75
   1   4  -4   70.09    1.41
   1   4  -4   67.73    1.57
   1   4  -4   70.74    1.79
   1   4  -4   69.86    1.82
  -1  -4   4   70.90    1.63
   1   4  -4   70.44    1.63
  -1  -4   4   67.90    1.61
   1   4  -3  146.99    2.71
   1   4  -3  153.58    2.87
  -1  -4   3  145.37    2.70
   1   4  -3  144.70    2.39
   1   4  -3  154.22    2.45
   1   4  -3  149.80    2.30
   1   4  -3  154.90    2.67
  -1  -4   3  152.79    2.73
   1   4  -3  153.79    2.69
   1   4  -3  157.32    2.83
   1   4  -3  158.17    2.41
  -1  -4   3  155.02    2.75
  -1  -4   3  151.81    2.46
   1   4  -2    3.88    0.34
   1   4  -2    3.86    0.24
  -1  -4   2    3.74    0.29
  -1  -4   2    4.52    0.32
   1   4  -2    3.73    0.23
   1   4  -2    3.91    0.32
  -1  -4   2    4.62    0.33
   1   4  -2    4.01    0.32
   1   4  -2    4.54    0.26
   1   4  -2    4.09    0.29
  -1  -4   2    3.88    0.33
   1   4  -2    4.05    0.26
   1   4  -2    3.91    0.32
   1   4  -2    4.22    0.33
   1   4  -1   96.15    1.79
  -1  -4   1   94.87    1.71
   1   4  -1  103.04    1.88
   1   4  -1   99.73    1.78
  -1  -4   1   98.52    1.72
   1   4  -1   97.92    1.84
  -1  -4   1   95.28    1.85
   1   4  -1   98.75    1.66
   1   4  -1   96.86    1.84
   1   4  -1   97.57    1.70
   1   4  -1   97.63    1.40
  -1  -4   0   43.81    1.03
   1   4   0   45.87    1.05
   1   4   0   44.97    0.97
   1   4   0   47.27    1.06
   1   4   0   45.82    1.08
   1   4   0   43.26    0.95
   1   4   0   45.38    1.09
   1   4   0   44.98    0.81
   1   4   1  598.06    7.47
  -1  -4  -1  584.86    7.59
   1   4   1  590.76    7.25
   1   4   1  591.78    7.54
  -1  -4  -1  593.24    7.43
  -1  -4  -2  512.10    6.05
  -1  -4  -2  481.37    6.03
  -1  -4  -2  521.81    6.64
  -1  -4  -2  473.95    6.03
  -1  -4  -2  501.01    6.18
  -1  -4  -3  114.08    1.79
  -1  -4  -3  114.08    1.74
  -1  -4  -3  112.47    1.77
  -1  -4  -3  114.81    1.66
   1   4   4  133.75    2.44
   1   4   4  134.18    2.30
   1   4   4  128.45    2.31
  -1  -4  -4  127.63    2.05
  -1  -4  -4  129.81    2.08
   1   4   4  131.44    2.41
   1   4   4  129.22    2.33
   1   4   4  129.31    2.42
   1   4   5    2.62    0.26
   1   4   5    2.06    0.28
   1   4   5    2.26    0.29
   1   4   5    2.34    0.27
   1   4   5    2.28    0.28
   1   4   5    2.47    0.28
   1   4   5    2.20    0.24
   1   4   5    3.39    0.36
   1   4   6  162.07    3.16
   1   4   6  158.01    2.94
   1   4   6  154.43    3.20
   1   4   6  159.36    3.18
   1   4   6  155.23    2.86
   1   4   6  158.39    2.99
   1   4   6  164.71    2.75
   1   4   6  153.73    2.86
   1   4   7  161.84    3.46
   1   4   7  164.25    3.42
   1   4   7  170.47    3.23
   1   4   7  165.95    3.03
   1   4   7  164.11    3.01
   1   4   7  159.64    3.00
   1   4   7  167.09    3.30
   1   4   8   50.95    1.70
  -1  -4  -8   54.66    1.48
   1   4   8   52.27    1.68
   1   4   8   55.26    1.55
   1   4   9    3.42    0.36
   1   4   9    3.53    0.29
  -1  -5   9   30.78    0.90
  -1  -5   9   31.40    0.86
  -1  -5   8   53.66    1.46
   1   5  -8   50.95    1.14
   1   5  -8   55.75    1.42
   1   5  -8   51.54    1.33
  -1  -5   8   55.20    1.56
  -1  -5   8   55.21    1.49
  -1  -5   8   51.09    1.17
   1   5  -7    1.65    0.27
   1   5  -7    1.74    0.29
  -1  -5   7    2.19    0.33
  -1  -5   7    2.80    0.38
   1   5  -7    1.66    0.25
  -1  -5   7    2.14    0.32
  -1  -5   7    1.50    0.27
  -1  -5   7    1.82    0.24
  -1  -5   6    7.47    0.61
   1   5  -6    7.43    0.46
   1   5  -6    7.58    0.59
  -1  -5   6    7.70    0.62
  -1  -5   6    6.94    0.46
  -1  -5   6    6.95    0.45
   1   5  -6    7.76    0.61
  -1  -5   6    6.13    0.56
   1   5  -5   54.84    1.65
   1   5  -5   54.39    1.71
   1   5  -5   55.97    1.48
  -1  -5   5   56.62    1.70
  -1  -5   5   54.78    1.51
  -1  -5   5   51.99    1.63
  -1  -5   5   52.58    1.66
   1   5  -4  310.23    4.99
  -1  -5   4  307.06    4.87
  -1  -5   4  313.18    4.97
   1   5  -4  300.06    5.13
  -1  -5   4  307.32    4.85
  -1  -5   4  292.09    4.94
   1   5  -4  303.53    4.86
   1   5  -4  308.81    4.84
  -1  -5   3  350.14    5.50
   1   5  -3  371.20    5.79
  -1  -5   3  366.32    5.39
  -1  -5   3  368.90    5.48
   1   5  -3  357.10    5.55
   1   5  -3  365.69    5.58
   1   5  -2   58.79    1.25
   1   5  -2   61.40    1.56
  -1  -5   2   58.11    1.42
  -1  -5   2   59.58    1.39
   1   5  -2   59.45    1.26
   1   5  -2   57.22    1.56
   1   5  -2   54.06    1.38
   1   5  -2   59.87    1.45
   1   5  -2   58.72    1.54
   1   5  -1   11.60    0.43
   1   5  -1   13.60    0.66
  -1  -5   1   12.06    0.54
  -1  -5   1   10.63    0.48
   1   5  -1   12.04    0.63
  -1  -5   1   11.69    0.58
  -1  -5   1   11.78    0.45
   1   5  -1   11.35    0.53
   1   5  -1   11.46    0.60
   1   5  -1   11.99    0.53
   1   5   0  330.02    4.71
   1   5   0  344.21    4.81
   1   5   0  307.85    4.00
   1   5   0  324.95    4.43
   1   5   0  323.93    4.51
  -1  -5   0  324.87    4.57
   1   5   1  147.76    2.16
  -1  -5  -1  149.59    2.31
   1   5   1  155.40    2.60
   1   5   1  151.28    2.42
   1   5   1  145.67    2.41
  -1  -5  -2   44.70    0.90
   1   5   2   46.74    1.08
   1   5   3    9.53    0.56
   1   5   3    8.86    0.52
   1   5   3    9.18    0.50
   1   5   3    9.56    0.53
   1   5   3    9.12    0.51
   1   5   4   25.79    0.96
   1   5   4   22.50    0.86
   1   5   4   20.91    0.75
   1   5   4   23.26    0.87
   1   5   4   21.00    0.90
   1   5   4   22.34    0.90
   1   5   4   24.03    0.94
   1   5   5  163.02    3.19
   1   5   5  168.17    3.28
   1   5   5  165.24    3.12
   1   5   5  160.55    3.20
   1   5   5  170.74    3.11
   1   5   5  167.79    3.17
   1   5   5  160.65    2.91
   1   5   6  281.56    4.82
   1   5   6  298.66    5.08
   1   5   6  306.74    4.70
   1   5   6  286.06    4.83
   1   5   6  289.89    5.02
   1   5   6  294.68    5.07
   1   5   7  108.31    2.45
   1   5   7  102.66    2.56
   1   5   7  104.34    2.54
   1   5   7  107.65    2.59
   1   5   8   11.05    0.70
  -1  -5  -8   10.57    0.52
   1   5   8   10.87    0.66
  -1  -5  -9    0.82    0.16
   1   5   9    0.99    0.16
   1   5   9    1.22    0.19
   1   6  -8   56.82    1.32
  -1  -6   8   58.34    1.47
  -1  -6   8   56.88    1.35
  -1  -6   8   53.49    1.25
   1   6  -8   54.78    1.13
   1   6  -8   52.98    1.12
   1   6  -7    5.72    0.46
   1   6  -7    6.66    0.48
   1   6  -7    6.53    0.45
  -1  -6   7    6.75    0.52
   1   6  -7    6.24    0.50
  -1  -6   7    6.33    0.53
  -1  -6   7    6.40    0.50
  -1  -6   7    6.32    0.46
   1   6  -6   41.80    1.44
   1   6  -6   41.20    1.46
  -1  -6   6   42.64    1.47
  -1  -6   6   41.53    1.45
  -1  -6   6   40.95    1.27
  -1  -6   6   42.33    1.44
   1   6  -6   40.50    1.33
   1   6  -6   45.16    1.23
  -1  -6   6   40.32    1.19
  -1  -6   5  128.43    2.68
   1   6  -5  135.79    2.69
  -1  -6   5  129.89    2.87
   1   6  -5  128.38    2.76
  -1  -6   5  132.57    2.83
  -1  -6   5  131.48    2.83
   1   6  -5  130.46    2.96
   1   6  -4  319.72    5.12
  -1  -6   4  306.78    5.02
  -1  -6   4  309.26    5.14
   1   6  -4  313.73    5.11
   1   6  -4  325.52    5.21
   1   6  -4  306.36    5.38
  -1  -6   4  307.23    5.15
  -1  -6   4  307.05    4.99
  -1  -6   3  108.18    2.27
  -1  -6   3  105.56    2.38
   1   6  -3  112.39    2.55
   1   6  -3  106.52    2.61
  -1  -6   3  107.58    2.25
   1   6  -3  106.38    2.47
   1   6  -3  115.70    2.42
  -1  -6   2    2.97    0.32
   1   6  -2    3.58    0.34
   1   6  -2    3.28    0.39
   1   6  -2    2.77    0.36
  -1  -6   2    2.69    0.28
  -1  -6   2    2.97    0.28
   1   6  -2    3.04    0.37
   1   6  -1    0.63    0.18
  -1  -6   1    0.69    0.16
   1   6  -1    0.69    0.15
   1   6  -1    0.82    0.21
   1   6  -1    0.67    0.20
   1   6   0   32.25    1.09
   1   6   0   30.40    0.92
   1   6   0   28.97    0.88
   1   6   0   30.57    1.03
  -1  -6   0   31.15    0.94
  -1  -6   0   27.58    0.81
   1   6   0   32.14    1.12
   1   6   0   30.74    0.88
   1   6   0   30.43    1.02
   1   6   0   30.66    0.98
   1   6   1   63.33    1.54
   1   6   1   62.71    1.54
   1   6   1   63.61    1.41
   1   6   1   63.78    1.53
   1   6   1   63.83    1.51
   1   6   1   61.90    1.45
   1   6   1   65.24    1.62
   1   6   1   63.81    1.46
   1   6   2  108.96    2.11
   1   6   2  113.37    2.16
   1   6   2  111.37    2.32
   1   6   2  106.79    2.22
   1   6   2  112.76    2.22
   1   6   2  108.96    2.33
   1   6   2  116.00    2.26
   1   6   3   25.69    0.90
   1   6   3   23.93    0.80
   1   6   3   26.11    1.06
   1   6   3   25.93    1.03
   1   6   3   25.43    0.99
   1   6   3   25.34    0.97
   1   6   3   26.39    0.99
   1   6   4  188.62    3.31
   1   6   4  190.71    3.62
   1   6   4  186.00    3.67
   1   6   4  196.31    3.63
   1   6   4  197.89    3.54
   1   6   4  192.60    3.39
   1   6   4  199.93    3.60
   1   6   5   62.37    1.84
   1   6   5   60.60    1.75
   1   6   5   61.92    1.61
   1   6   5   65.41    1.96
   1   6   5   57.74    1.76
   1   6   5   61.92    1.73
   1   6   5   56.44    1.80
   1   6   6   87.08    2.26
   1   6   6   92.35    2.41
   1   6   6   83.73    2.25
   1   6   6   89.23    2.01
   1   6   6   92.68    2.27
   1   6   6   90.28    2.26
   1   6   7   10.31    0.68
   1   6   7    9.34    0.64
   1   6   7    9.76    0.67
   1   6   7    9.52    0.69
   1   6   8    7.14    0.50
   1   6   8    7.35    0.49
   1   7  -7   28.79    0.97
  -1  -7   7   28.91    0.92
  -1  -7   7   29.43    0.98
   1   7  -7   30.74    1.02
   1   7  -7   28.98    0.98
  -1  -7   7   30.66    1.03
   1   7  -6   47.68    1.51
   1   7  -6   48.58    1.55
  -1  -7   6   46.21    1.24
  -1  -7   6   50.41    1.48
  -1  -7   6   49.36    1.48
   1   7  -6   48.27    1.53
  -1  -7   6   46.60    1.37
   1   7  -6   48.62    1.29
  -1  -7   6   47.22    1.18
   1   7  -5   18.82    0.83
  -1  -7   5   19.47    0.94
  -1  -7   5   19.92    0.91
   1   7  -5   20.48    0.90
  -1  -7   5   18.51    0.86
  -1  -7   5   18.94    0.89
   1   7  -5   20.52    1.04
   1   7  -4   35.88    1.22
   1   7  -4   38.68    1.51
  -1  -7   4   35.45    1.30
  -1  -7   4   34.48    1.33
  -1  -7   4   38.06    1.25
   1   7  -4   39.63    1.40
  -1  -7   4   36.01    1.20
  -1  -7   3    5.58    0.44
  -1  -7   3    6.95    0.54
  -1  -7   3    5.85    0.44
   1   7  -3    6.23    0.58
   1   7  -3    6.79    0.63
   1   7  -3    6.44    0.49
   1   7  -3    6.52    0.58
   1   7  -2    2.07    0.34
  -1  -7   2    2.13    0.30
   1   7  -2    2.24    0.36
   1   7  -2    2.76    0.31
   1   7  -1   45.77    1.49
   1   7  -1   45.61    1.27
   1   7  -1   50.38    1.64
   1   7  -1   46.98    1.57
   1   7  -1   48.20    1.56
  -1  -7   1   47.23    1.35
   1   7   0   50.94    1.55
   1   7   0   54.98    1.67
   1   7   0   54.11    1.51
   1   7   0   50.45    1.43
  -1  -7   0   51.87    1.37
   1   7   1  201.41    3.59
   1   7   1  200.76    3.52
   1   7   1  198.01    3.67
   1   7   1  210.44    3.48
   1   7   1  208.89    3.73
   1   7   1  198.78    3.61
   1   7   1  206.07    3.62
   1   7   2  178.58    3.39
   1   7   2  173.44    3.19
   1   7   2  180.65    3.30
   1   7   2  181.05    3.47
   1   7   2  175.37    3.44
   1   7   2  185.17    3.38
   1   7   3   97.39    2.17
   1   7   3   94.65    2.46
   1   7   3   97.97    2.33
   1   7   3   99.27    2.36
   1   7   3  101.36    2.48
   1   7   3  101.50    2.35
   1   7   4    9.71    0.60
   1   7   4   11.38    0.74
   1   7   4   10.53    0.75
   1   7   4   10.20    0.76
   1   7   4    9.51    0.70
   1   7   4   10.39    0.61
   1   7   4   10.48    0.70
   1   7   5    0.73    0.22
   1   7   5    1.22    0.29
   1   7   5    0.87    0.20
   1   7   5    1.22    0.26
   1   7   5    0.78    0.25
   1   7   6    4.07    0.44
   1   7   6    5.74    0.42
   1   7   6    5.18    0.53
   1   7   6    4.75    0.44
   1   7   6    4.92    0.47
   1   7   7   35.64    1.18
   1   7   7   33.95    1.22
   1   7   7   33.22    1.12
   1   7   8   26.31    0.84
   1   7   8   24.72    0.73
   1   8  -7   13.09    0.55
   1   8  -7   13.18    0.54
   1   8  -7   13.43    0.48
  -1  -8   7   12.03    0.48
  -1  -8   6    1.78    0.20
  -1  -8   6    2.21    0.26
   1   8  -6    2.23    0.28
  -1  -8   6    1.99    0.20
  -1  -8   6    1.85    0.24
   1   8  -6    1.90    0.26
   1   8  -6    2.42    0.28
   1   8  -6    2.01    0.29
  -1  -8   5    9.38    0.54
  -1  -8   5    9.01    0.48
   1   8  -5   10.24    0.65
  -1  -8   5    8.95    0.57
  -1  -8   5    9.94    0.59
   1   8  -5    9.70    0.69
   1   8  -5    9.11    0.65
   1   8  -5    9.52    0.65
   1   8  -4    5.90    0.58
   1   8  -4    4.95    0.50
  -1  -8   4    4.74    0.44
  -1  -8   4    4.41    0.37
   1   8  -4    5.11    0.52
  -1  -8   4    4.47    0.46
   1   8  -4    4.79    0.50
   1   8  -3  166.91    3.54
   1   8  -3  170.16    3.60
  -1  -8   3  162.82    3.43
  -1  -8   3  156.85    3.09
   1   8  -3  162.55    3.43
   1   8  -2  122.59    2.94
   1   8  -2  120.51    2.88
   1   8  -2  124.88    2.92
   1   8  -2  127.40    2.94
  -1  -8   2  119.29    2.52
   1   8  -1   60.58    1.80
   1   8  -1   60.82    1.87
   1   8  -1   62.49    1.93
   1   8  -1   60.30    1.74
   1   8  -1   60.25    1.89
  -1  -8   1   59.31    1.56
   1   8   0   38.14    1.43
   1   8   0   32.04    1.25
   1   8   0   34.22    1.15
   1   8   0   37.59    1.21
   1   8   0   35.38    1.21
  -1  -8   0   35.44    1.09
   1   8   1   72.22    1.95
   1   8   1   73.22    1.99
   1   8   1   78.03    2.15
   1   8   2   75.24    1.95
   1   8   2   73.07    2.06
   1   8   2   74.27    1.92
   1   8   2   74.91    2.00
   1   8   2   70.14    2.07
   1   8   3   17.95    0.94
   1   8   3   17.96    0.93
   1   8   3   16.43    0.97
   1   8   3   18.28    0.97
   1   8   3   17.22    0.83
   1   8   4   16.16    0.78
   1   8   4   15.03    0.93
   1   8   4   15.95    0.90
   1   8   4   18.45    0.96
   1   8   4   16.81    0.88
   1   8   5    3.51    0.33
   1   8   5    3.27    0.30
   1   8   5    3.26    0.41
   1   8   5    3.71    0.42
   1   8   5    3.18    0.37
   1   8   6   91.52    2.07
   1   8   6   88.65    2.15
   1   8   6   86.64    1.93
   1   8   7  113.03    2.16
   1   8   7  105.77    1.87
   1   9  -6    1.82    0.18
   1   9  -6    1.98    0.24
  -1  -9   5   25.46    0.79
   1   9  -5   27.50    0.93
   1   9  -5   27.30    0.95
  -1  -9   5   25.76    0.84
   1   9  -5   28.17    1.06
   1   9  -5   28.43    0.97
   1   9  -4  138.18    2.94
   1   9  -4  143.24    2.82
   1   9  -4  138.32    2.78
  -1  -9   4  137.01    2.68
  -1  -9   4  130.06    2.45
   1   9  -4  137.69    2.78
   1   9  -3  159.29    3.32
   1   9  -3  165.31    3.30
   1   9  -3  168.58    3.25
  -1  -9   3  153.77    2.83
  -1  -9   3  157.29    3.21
   1   9  -3  162.87    3.27
  -1  -9   2   49.47    1.63
   1   9  -2   48.91    1.65
   1   9  -2   53.99    1.61
   1   9  -2   48.74    1.59
   1   9  -2   50.57    1.71
  -1  -9   2   47.37    1.31
  -1  -9   1    6.23    0.42
   1   9  -1    6.69    0.61
   1   9  -1    6.74    0.53
   1   9  -1    6.48    0.50
   1   9  -1    6.89    0.60
   1   9   0    8.37    0.55
   1   9   0    9.40    0.68
   1   9   0    8.89    0.69
   1   9   1   13.05    0.77
   1   9   1   11.71    0.73
   1   9   1   12.84    0.83
   1   9   2  150.04    3.22
   1   9   2  155.37    3.26
   1   9   2  153.82    3.04
   1   9   3    5.53    0.44
   1   9   3    5.41    0.52
   1   9   4    4.65    0.45
   1   9   4    4.84    0.46
   1   9   4    4.56    0.35
   1   9   5   72.22    1.79
   1   9   5   73.09    1.76
   1   9   6   98.52    1.87
   1  10  -4  116.53    2.24
   1  10  -4  116.92    2.10
   1  10  -4  113.92    2.19
   1  10  -3   16.30    0.63
  -1 -10   3   15.64    0.70
   1  10  -3   16.99    0.78
   1  10  -3   16.66    0.75
   1  10  -3   17.05    0.76
   1  10  -2    7.70    0.55
   1  10  -2    7.64    0.55
  -1 -10   2    7.58    0.53
   1  10  -2    7.91    0.51
   1  10  -1    0.73    0.21
  -1 -10   1    0.77    0.20
   1  10  -1    0.68    0.20
   1  10   0   42.28    1.43
  -1 -10   0   38.41    1.25
   1  10   0   43.04    1.34
  -1 -10  -1  100.18    2.08
   1  10   1  104.97    2.42
   1  10   1  104.89    2.20
   1  10   2   60.78    1.46
   1  10   2   62.95    1.73
   1  10   3   34.47    1.16
   1  10   4    3.29    0.32
   1  11  -1   37.96    0.94
   1  11  -1   37.94    1.04
   1  11   0   87.81    1.82
   1  11   1   49.95    1.27
  -2  10   0  112.72    2.04
  -2  10   0   93.38    1.61
  -2  10  -1   59.00    1.42
  -2  10  -1   48.55    0.96
  -2  10  -2    5.76    0.41
   2 -10   2    4.10    0.27
  -2  10  -3   19.85    0.75
   2 -10   3   16.13    0.59
  -2   9   3    6.72    0.39
  -2   9   3    7.60    0.42
  -2   9   2   92.86    1.94
  -2   9   2  100.11    2.09
  -2   9   1  196.40    3.33
   2  -9  -1  190.77    3.11
  -2   9   1  200.08    3.55
   2  -9   0   17.63    0.76
  -2   9   0   18.09    0.89
  -2   9   0   18.34    0.79
  -2   9  -1    0.37    0.14
  -2   9  -1    0.73    0.21
   2  -9   1    0.42    0.14
   2  -9   2    5.98    0.45
  -2   9  -2    5.07    0.38
  -2   9  -2    6.12    0.54
  -2   9  -2    5.73    0.47
  -2   9  -3   12.34    0.53
   2  -9   3   12.03    0.65
  -2   9  -3   12.93    0.77
  -2   9  -3   14.25    0.75
  -2   9  -3   12.37    0.63
  -2   9  -4   68.74    1.71
   2  -9   4   64.50    1.58
  -2   9  -4   69.68    1.82
  -2   9  -4   65.52    1.64
  -2   9  -5   15.05    0.71
   2  -9   5   14.46    0.63
  -2   9  -5   15.39    0.73
   2  -9   5   15.01    0.61
  -2   9  -5   14.92    0.67
   2  -9   5   14.94    0.70
   2  -9   6    0.91    0.16
  -2   9  -6    0.83    0.16
  -2   9  -6    0.87    0.17
  -2   8   4    2.53    0.27
  -2   8   4    2.60    0.31
  -2   8   4    2.75    0.26
  -2   8   4    2.57    0.28
  -2   8   3   51.67    1.50
  -2   8   3   49.18    1.42
  -2   8   3   48.64    1.31
  -2   8   2  100.18    2.27
  -2   8   2   97.40    2.35
  -2   8   2   95.30    2.06
  -2   8   2   99.12    2.11
  -2   8   1   16.10    0.82
  -2   8   1   15.97    0.90
  -2   8   1   15.31    0.68
  -2   8   1   15.71    0.73
  -2   8   0    8.40    0.58
  -2   8   0    8.65    0.60
  -2   8   0    8.92    0.69
  -2   8  -1    1.06    0.25
  -2   8  -1    1.74    0.27
   2  -8   1    1.22    0.26
  -2   8  -2   38.21    1.44
  -2   8  -2   38.71    1.28
  -2   8  -2   41.54    1.36
   2  -8   2   38.90    1.40
  -2   8  -2   37.74    1.21
  -2   8  -2   39.99    1.51
  -2   8  -3  196.17    3.30
   2  -8   3  194.55    3.71
  -2   8  -3  192.24    3.68
  -2   8  -3  197.00    3.76
  -2   8  -3  189.68    3.79
  -2   8  -3  199.52    3.94
   2  -8   4   83.65    1.85
  -2   8  -4   86.31    1.75
   2  -8   4   93.73    2.26
  -2   8  -4   88.51    2.33
  -2   8  -4   87.75    2.25
  -2   8  -4   87.04    2.24
  -2   8  -4   90.18    2.34
  -2   8  -5   60.17    1.78
  -2   8  -5   62.67    1.86
  -2   8  -5   58.24    1.78
  -2   8  -5   62.00    1.77
  -2   8  -5   57.83    1.67
   2  -8   5   53.51    1.41
   2  -8   5   56.43    1.63
   2  -8   6   37.69    1.19
  -2   8  -6   39.89    1.36
   2  -8   6   39.23    1.08
  -2   8  -6   32.03    0.90
  -2   8  -6   39.04    1.35
  -2   8  -6   37.86    1.16
  -2   8  -6   40.76    1.27
   2  -8   6   34.84    1.00
  -2   8  -6   40.45    1.31
   2  -8   6   40.51    1.25
   2  -8   7   30.93    0.91
   2  -8   7   29.64    0.91
  -2   8  -7   32.61    1.01
   2  -8   7   28.37    0.77
  -2   8  -7   31.85    1.07
  -2   7   5   30.69    1.02
  -2   7   5   28.65    1.03
  -2   7   5   29.69    1.01
  -2   7   4    9.89    0.64
  -2   7   4    8.56    0.61
  -2   7   4    9.59    0.64
  -2   7   4    9.56    0.63
  -2   7   3   14.62    0.84
  -2   7   3   13.62    0.79
  -2   7   3   13.40    0.78
  -2   7   3   12.49    0.75
  -2   7   2   36.49    1.27
  -2   7   2   36.79    1.34
  -2   7   2   37.65    1.41
  -2   7   2   35.87    1.32
  -2   7   1   17.49    0.95
  -2   7   1   16.94    0.86
  -2   7   1   17.81    0.83
  -2   7   1   14.85    0.74
  -2   7   1   16.50    0.84
  -2   7   0   54.75    1.57
  -2   7   0   55.44    1.69
  -2   7   0   52.39    1.71
  -2   7   0   53.42    1.65
  -2   7   0   50.99    1.51
  -2   7  -1  114.61    2.71
  -2   7  -1  110.52    2.63
  -2   7  -1  105.50    2.60
  -2   7  -1  112.15    2.34
  -2   7  -1  111.15    2.30
  -2   7  -1  109.80    2.27
  -2   7  -2  250.80    4.54
  -2   7  -2  251.30    4.04
  -2   7  -2  242.00    4.16
   2  -7   2  235.86    4.36
  -2   7  -2  234.75    4.43
  -2   7  -2  237.86    4.21
   2  -7   2  239.80    3.91
  -2   7  -2  227.69    4.34
   2  -7   3   83.47    1.98
  -2   7  -3   86.97    2.32
  -2   7  -3   88.20    1.92
   2  -7   3   86.46    2.27
  -2   7  -3   91.79    2.48
  -2   7  -3   89.23    1.96
  -2   7  -3   85.81    2.26
  -2   7  -3   85.45    2.32
  -2   7  -3   86.19    2.34
  -2   7  -4   59.78    1.95
  -2   7  -4   57.81    1.44
  -2   7  -4   56.29    1.81
  -2   7  -4   56.38    1.85
  -2   7  -4   60.73    1.61
   2  -7   4   58.57    1.65
   2  -7   4   55.96    1.77
   2  -7   5   15.50    0.88
  -2   7  -5   15.25    0.77
   2  -7   5   14.90    0.80
  -2   7  -5   15.15    0.86
  -2   7  -5   15.74    0.94
  -2   7  -5   15.10    0.93
  -2   7  -6   12.91    0.79
   2  -7   6   12.92    0.77
  -2   7  -6   11.31    0.64
  -2   7  -6    6.57    0.54
   2  -7   6    8.40    0.59
  -2   7  -6   11.57    0.79
   2  -7   6   11.32    0.72
  -2   7  -7    6.49    0.45
   2  -7   7    6.46    0.49
  -2   7  -7    7.40    0.58
  -2   7  -7    6.85    0.45
  -2   7  -7    7.80    0.54
   2  -7   7    6.90    0.49
   2  -7   7    7.64    0.51
  -2   7  -8    3.68    0.30
   2  -7   8    3.09    0.29
  -2   7  -8    3.76    0.28
  -2   7  -8    4.17    0.37
   2  -7   8    3.31    0.30
   2  -7   8    3.18    0.25
  -2   6   6   19.96    0.86
  -2   6   6   22.08    0.87
  -2   6   5   13.74    0.79
  -2   6   5   12.90    0.79
  -2   6   5   13.45    0.82
  -2   6   5   13.87    0.77
  -2   6   4   29.78    1.23
  -2   6   4   30.80    1.24
  -2   6   4   29.33    1.26
  -2   6   4   29.37    1.24
  -2   6   3    3.44    0.42
  -2   6   3    3.31    0.40
  -2   6   3    3.05    0.40
  -2   6   3    2.94    0.39
  -2   6   2   51.76    1.57
  -2   6   2   49.24    1.53
  -2   6   2   47.84    1.58
  -2   6   2   50.13    1.61
  -2   6   1  374.13    5.88
  -2   6   1  368.52    5.96
  -2   6   1  387.09    5.81
  -2   6   1  383.65    5.72
  -2   6   1  393.09    5.83
  -2   6   1  380.83    5.68
  -2   6   0   99.38    2.11
  -2   6   0   98.26    2.28
  -2   6   0  103.44    2.38
  -2   6   0   99.70    2.29
  -2   6   0   97.32    1.88
   2  -6   0  102.50    1.99
  -2   6  -1   51.83    1.37
  -2   6  -1   49.53    1.59
  -2   6  -1   53.70    1.55
  -2   6  -1   51.88    1.39
  -2   6  -1   51.79    1.59
  -2   6  -1   51.84    1.54
  -2   6  -1   48.16    1.37
   2  -6   1   51.92    1.36
  -2   6  -1   51.03    1.36
  -2   6  -2    2.72    0.36
  -2   6  -2    2.71    0.32
  -2   6  -2    3.16    0.28
  -2   6  -2    2.64    0.37
  -2   6  -2    2.83    0.30
  -2   6  -2    2.61    0.34
   2  -6   2    3.46    0.35
  -2   6  -2    2.72    0.37
  -2   6  -3    4.01    0.47
  -2   6  -3    3.85    0.44
   2  -6   3    4.40    0.42
  -2   6  -3    3.92    0.35
   2  -6   3    4.45    0.46
  -2   6  -3    4.14    0.46
  -2   6  -3    4.35    0.44
  -2   6  -3    4.04    0.34
  -2   6  -4   83.57    2.18
  -2   6  -4   83.68    2.02
   2  -6   4   82.65    2.08
   2  -6   4   82.47    2.16
  -2   6  -4   83.58    2.35
  -2   6  -4   83.13    1.73
  -2   6  -4   79.69    2.19
  -2   6  -4   81.98    2.23
   2  -6   5   16.77    0.89
   2  -6   5   17.82    0.96
  -2   6  -5   17.95    1.00
  -2   6  -5   18.24    0.90
  -2   6  -5   17.42    0.92
  -2   6  -5   16.13    0.97
  -2   6  -6    4.42    0.45
  -2   6  -6    4.30    0.48
   2  -6   6    3.91    0.45
  -2   6  -6    4.78    0.45
  -2   6  -6    4.42    0.50
   2  -6   6    4.65    0.41
   2  -6   6    5.32    0.51
   2  -6   7   17.92    0.91
  -2   6  -7   17.48    0.86
  -2   6  -7   19.64    0.95
  -2   6  -7   18.83    0.97
   2  -6   7   17.91    0.82
   2  -6   7   17.52    0.90
   2  -6   7   19.57    0.90
   2  -6   8   47.52    1.23
  -2   6  -8   53.84    1.43
  -2   6  -8   52.47    1.48
  -2   6  -8   53.45    1.44
   2  -6   8   53.04    1.46
   2  -6   8   50.84    1.29
   2  -6   8   53.40    1.51
   2  -6   9  118.91    2.09
   2  -6   9  116.73    2.13
  -2   6  -9  124.70    2.09
  -2   6  -9  111.45    2.04
   2  -6   9  109.71    1.87
  -2   5   7   29.70    0.96
  -2   5   7   27.42    0.95
  -2   5   6   40.23    1.42
  -2   5   6   42.42    1.39
  -2   5   5   56.90    1.78
  -2   5   5   53.92    1.81
  -2   5   5   53.07    1.71
  -2   5   5   56.44    1.73
  -2   5   4    9.45    0.68
  -2   5   4    9.08    0.66
  -2   5   4    9.30    0.69
  -2   5   4    8.76    0.69
  -2   5   3   32.25    1.27
  -2   5   3   32.69    1.24
  -2   5   3   33.44    1.23
  -2   5   3   31.33    1.26
  -2   5   2  205.72    3.70
  -2   5   2  205.56    3.76
  -2   5   2  204.29    3.62
  -2   5   2  215.52    3.74
  -2   5   1  253.83    4.00
  -2   5   1  258.53    4.07
  -2   5   1  249.81    4.13
  -2   5   1  250.87    3.99
  -2   5   1  263.92    4.12
  -2   5   1  249.47    4.14
  -2   5   0   23.39    0.70
  -2   5   0   24.14    0.95
  -2   5   0   23.38    0.88
  -2   5   0   23.97    0.81
  -2   5   0   23.89    0.93
  -2   5   0   22.40    0.86
  -2   5  -1   77.47    1.88
  -2   5  -1   75.46    1.96
  -2   5  -1   77.11    1.77
  -2   5  -1   78.99    1.87
  -2   5  -1   79.74    1.61
  -2   5  -1   77.29    1.53
  -2   5  -1   76.47    1.74
   2  -5   1   72.70    1.42
  -2   5  -2    1.16    0.16
  -2   5  -2    0.82    0.15
  -2   5  -2    1.13    0.20
   2  -5   2    0.94    0.18
  -2   5  -2    0.88    0.21
  -2   5  -2    0.92    0.23
  -2   5  -2    0.60    0.17
  -2   5  -3  198.57    3.27
  -2   5  -3  200.58    2.98
  -2   5  -3  195.63    3.56
  -2   5  -3  194.93    3.71
  -2   5  -3  198.58    3.70
   2  -5   3  200.60    3.47
  -2   5  -3  200.31    3.49
  -2   5  -3  195.97    3.60
  -2   5  -4  382.82    6.07
  -2   5  -4  389.47    6.30
   2  -5   4  391.39    6.11
  -2   5  -4  376.88    6.04
   2  -5   4  407.24    6.07
  -2   5  -4  423.40    6.02
  -2   5  -4  403.22    6.12
  -2   5  -4  394.73    6.15
   2  -5   5   27.74    1.16
  -2   5  -5   27.33    1.19
  -2   5  -5   28.27    1.11
  -2   5  -5   27.81    1.06
  -2   5  -5   26.01    1.14
  -2   5  -5   27.79    1.12
   2  -5   5   27.80    0.96
   2  -5   5   27.63    1.15
  -2   5  -6    6.88    0.57
   2  -5   6    6.98    0.60
  -2   5  -6    7.36    0.62
   2  -5   6    7.93    0.56
   2  -5   6    7.76    0.47
  -2   5  -6    7.84    0.55
  -2   5  -6    7.96    0.52
   2  -5   6    7.65    0.62
  -2   5  -6    8.40    0.65
   2  -5   7   69.19    2.00
   2  -5   7   66.85    1.95
  -2   5  -7   67.16    1.62
  -2   5  -7   68.45    1.93
  -2   5  -7   69.01    1.93
   2  -5   7   65.75    1.86
   2  -5   7   67.22    1.68
  -2   5  -7   66.64    1.92
   2  -5   7   69.57    1.84
   2  -5   8  178.08    3.38
  -2   5  -8  169.78    3.26
   2  -5   8  159.23    2.99
   2  -5   8  159.11    2.90
   2  -5   8  169.88    3.25
  -2   5  -8  154.63    3.05
   2  -5   8  164.27    3.26
  -2   5  -8  175.91    3.19
  -2   5  -9  104.66    2.12
   2  -5   9  105.15    2.18
   2  -5   9  102.37    2.07
  -2   5  -9  101.20    1.95
  -2   4   7  118.17    2.52
  -2   4   7  123.31    2.46
  -2   4   6  144.49    3.17
  -2   4   6  147.16    3.07
  -2   4   5   68.49    1.63
  -2   4   5   74.18    2.06
  -2   4   5   75.53    2.09
  -2   4   5   72.86    2.16
  -2   4   5   72.31    2.01
  -2   4   4    1.05    0.26
  -2   4   4    1.27    0.26
  -2   4   4    0.82    0.20
  -2   4   4    0.85    0.23
  -2   4   3   39.57    1.26
  -2   4   3   40.42    1.27
  -2   4   3   39.73    1.36
  -2   4   3   39.32    1.32
  -2   4   2  260.53    3.83
  -2   4   2  243.63    3.96
  -2   4   2  249.54    4.07
  -2   4   2  248.65    3.93
  -2   4   2  245.78    4.05
  -2   4   1   57.48    1.27
   2  -4  -1   55.29    1.33
  -2   4   1   59.63    1.37
  -2   4   1   58.86    1.39
  -2   4   1   56.94    1.38
  -2   4   1   56.15    1.40
   2  -4   0    9.06    0.40
  -2   4   0    8.80    0.33
  -2   4   0    8.97    0.39
   2  -4   0    9.12    0.37
  -2   4   0    8.61    0.52
   2  -4   0    8.92    0.49
  -2   4   0    9.48    0.51
  -2   4   0    8.80    0.43
   2  -4   1    1.55    0.18
  -2   4  -1    2.07    0.26
   2  -4   1    1.59    0.19
   2  -4   1    1.46    0.18
  -2   4  -1    1.10    0.15
  -2   4  -1    1.80    0.25
  -2   4  -1    1.65    0.22
  -2   4  -1    1.56    0.21
  -2   4  -1    1.51    0.15
  -2   4  -2  214.40    3.31
  -2   4  -2  200.55    3.02
  -2   4  -2  196.22    2.85
   2  -4   2  205.68    3.08
  -2   4  -2  209.60    3.42
   2  -4   2  201.52    2.98
  -2   4  -2  198.52    2.96
  -2   4  -2  205.94    3.24
  -2   4  -2  209.05    3.25
   2  -4   2  197.93    2.77
  -2   4  -2  201.51    2.78
  -2   4  -3  642.22    8.32
  -2   4  -3  645.95    8.74
   2  -4   3  639.62    8.43
   2  -4   3  646.35    8.50
  -2   4  -3  590.16    8.52
  -2   4  -3  627.19    8.23
  -2   4  -3  619.81    8.55
  -2   4  -3  658.22    8.45
  -2   4  -3  595.24    8.60
  -2   4  -4  176.79    3.11
  -2   4  -4  171.74    3.25
   2  -4   4  175.46    3.13
  -2   4  -4  172.53    3.11
  -2   4  -4  167.50    3.08
   2  -4   4  177.76    3.15
  -2   4  -4  172.05    3.13
  -2   4  -4  169.59    3.07
   2  -4   5   56.99    1.46
   2  -4   5   57.35    1.61
  -2   4  -5   54.20    1.63
   2  -4   5   57.34    1.26
  -2   4  -5   60.65    1.57
  -2   4  -5   59.86    1.60
  -2   4  -5   56.53    1.58
   2  -4   5   55.26    1.61
  -2   4  -5   54.70    1.59
   2  -4   5   55.44    1.27
  -2   4  -5   58.30    1.50
   2  -4   6   32.98    1.28
   2  -4   6   32.73    1.02
  -2   4  -6   32.99    1.26
   2  -4   6   33.53    1.27
  -2   4  -6   31.24    1.18
  -2   4  -6   33.11    1.27
  -2   4  -6   32.65    1.03
   2  -4   6   33.86    1.20
  -2   4  -6   34.06    1.11
   2  -4   6   33.30    1.12
   2  -4   6   33.03    1.19
   2  -4   7  156.01    3.34
   2  -4   7  157.05    3.28
  -2   4  -7  160.69    2.72
  -2   4  -7  163.83    3.25
   2  -4   7  158.81    2.87
  -2   4  -7  167.80    3.20
   2  -4   7  154.45    3.09
   2  -4   7  157.71    3.26
  -2   4  -7  158.31    3.30
   2  -4   7  148.50    2.97
  -2   4  -8   83.85    2.17
   2  -4   8   81.68    2.19
  -2   4  -8   84.01    2.03
   2  -4   8   81.64    1.84
  -2   4  -8   78.35    1.87
   2  -4   8   79.15    1.80
   2  -4   8   83.57    2.13
   2  -4   8   81.57    2.21
   2  -4   8   80.88    2.09
   2  -4   9    6.12    0.47
   2  -4   9    6.77    0.52
   2  -4   9    5.16    0.36
   2  -4   9    6.52    0.51
   2  -4   9    6.83    0.56
  -2   4  -9    5.98    0.42
  -2   4  -9    6.92    0.52
  -2   4 -10    0.60    0.14
   2  -4  10    0.57    0.15
   2  -4  10    0.57    0.13
   2  -4  10    0.78    0.13
  -2   3   8   56.55    1.33
  -2   3   7  197.10    3.27
   2  -3  -7  188.71    3.19
  -2   3   7  192.18    3.14
  -2   3   7  210.28    3.73
  -2   3   7  209.55    3.59
  -2   3   6   88.05    1.96
  -2   3   6   90.43    2.40
   2  -3  -6   93.79    2.08
  -2   3   6   96.46    2.31
  -2   3   6   86.08    2.02
  -2   3   5    0.59    0.16
  -2   3   5    0.60    0.19
  -2   3   5    0.59    0.22
  -2   3   5    0.60    0.17
  -2   3   5    0.57    0.19
  -2   3   4    5.50    0.46
  -2   3   4    5.71    0.48
  -2   3   4    5.62    0.38
  -2   3   4    7.41    0.45
  -2   3   4    5.73    0.47
  -2   3   4    6.05    0.53
  -2   3   3   31.20    1.01
  -2   3   3   30.43    1.00
  -2   3   3   30.00    1.09
  -2   3   3   30.04    1.03
   2  -3  -2  241.51    3.42
   2  -3  -2  238.41    3.66
   2  -3  -2  232.55    3.54
   2  -3  -2  236.79    3.36
  -2   3   2  246.68    3.55
  -2   3   1  248.00    3.40
  -2   3   1  242.23    3.44
  -2   3   1  249.40    3.33
  -2   3   1  252.99    3.84
   2  -3  -1  243.38    3.69
  -2   3   1  247.31    3.47
  -2   3   1  258.48    3.68
   2  -3  -1  244.75    3.42
  -2   3   0   53.52    1.25
  -2   3   0   55.69    1.09
  -2   3   0   57.87    1.24
  -2   3   0   55.77    1.05
   2  -3   0   57.07    1.26
  -2   3   0   56.36    1.02
   2  -3   0   56.66    0.94
  -2   3   0   55.11    1.00
   2  -3   0   57.11    1.07
   2  -3   0   55.79    1.13
  -2   3  -1   61.35    1.03
   2  -3   1   61.97    1.23
  -2   3  -1   62.79    1.24
  -2   3  -1   65.03    1.24
  -2   3  -1   64.72    1.32
  -2   3  -1   62.14    1.39
   2  -3   1   61.63    1.25
  -2   3  -1   62.18    1.04
  -2   3  -1   65.54    1.40
   2  -3   1   63.58    0.98
  -2   3  -1   60.42    1.15
   2  -3   1   61.44    1.24
  -2   3  -2  391.07    5.45
  -2   3  -2  396.89    5.57
   2  -3   2  393.67    5.35
   2  -3   2  400.73    5.38
   2  -3   2  400.07    4.98
  -2   3  -2  384.83    4.99
  -2   3  -2  391.80    5.25
  -2   3  -2  392.00    5.35
  -2   3  -2  388.17    5.40
  -2   3  -2  387.44    5.38
   2  -3   2  408.28    5.14
  -2   3  -2  399.41    5.34
   2  -3   3   63.94    1.02
  -2   3  -3   60.34    1.34
  -2   3  -3   61.84    1.16
  -2   3  -3   64.34    1.42
  -2   3  -3   65.46    1.54
  -2   3  -3   56.92    1.40
   2  -3   3   64.40    1.18
   2  -3   3   66.84    1.44
   2  -3   3   68.12    1.43
   2  -3   3   64.87    1.39
  -2   3  -3   64.65    1.42
  -2   3  -3   67.03    1.36
  -2   3  -3   63.35    1.40
  -2   3  -3   66.74    1.36
   2  -3   3   66.21    1.18
  -2   3  -4   91.10    1.91
   2  -3   4   93.54    1.91
  -2   3  -4   95.95    1.72
  -2   3  -4   96.41    2.04
   2  -3   4   98.29    1.69
  -2   3  -4   95.98    1.91
   2  -3   4   99.41    1.75
  -2   3  -4  101.12    1.93
  -2   3  -4   99.54    1.97
  -2   3  -4   93.65    1.67
  -2   3  -4   96.99    1.92
   2  -3   4  101.11    1.97
   2  -3   4   98.57    1.99
  -2   3  -4   91.63    1.63
   2  -3   5   10.10    0.54
   2  -3   5   10.61    0.52
  -2   3  -5    9.64    0.53
  -2   3  -5    9.49    0.54
  -2   3  -5    9.51    0.51
  -2   3  -5   10.90    0.46
   2  -3   5   10.97    0.61
   2  -3   5    9.89    0.59
  -2   3  -5   10.15    0.60
  -2   3  -5    9.96    0.52
  -2   3  -5    8.96    0.45
  -2   3  -5    9.61    0.60
  -2   3  -5    9.81    0.46
   2  -3   5   10.27    0.50
  -2   3  -6    5.18    0.43
   2  -3   6    4.46    0.42
  -2   3  -6    5.01    0.46
   2  -3   6    5.28    0.42
  -2   3  -6    5.55    0.38
   2  -3   6    5.39    0.49
   2  -3   6    5.09    0.46
   2  -3   6    4.83    0.38
   2  -3   6    5.40    0.42
  -2   3  -6    5.40    0.37
  -2   3  -6    4.53    0.44
   2  -3   6    5.69    0.44
   2  -3   6    5.61    0.44
  -2   3  -6    4.54    0.36
   2  -3   7   23.19    0.97
  -2   3  -7   22.56    0.89
  -2   3  -7   23.20    1.07
  -2   3  -7   23.55    1.01
  -2   3  -7   21.82    0.91
   2  -3   7   22.93    1.08
   2  -3   7   23.19    1.04
   2  -3   7   24.86    1.06
   2  -3   7   22.87    0.94
   2  -3   7   25.67    0.96
   2  -3   7   23.09    1.06
   2  -3   8  118.10    2.59
   2  -3   8  121.01    2.80
  -2   3  -8  125.69    2.61
   2  -3   8  127.93    2.75
  -2   3  -8  127.78    2.83
   2  -3   8  123.74    2.90
   2  -3   8  122.47    2.33
  -2   3  -8  113.67    2.43
   2  -3   8  124.44    2.83
   2  -3   9    7.24    0.56
  -2   3  -9    6.54    0.45
  -2   3  -9    7.44    0.48
   2  -3   9    7.25    0.61
   2  -3   9    7.27    0.52
   2  -3   9    7.88    0.61
  -2   3  -9    7.61    0.57
   2  -3   9    7.34    0.53
  -2   3 -10   84.96    1.83
   2  -3  10   85.88    1.97
   2  -3  10   78.83    1.67
   2  -3  10   84.33    1.77
   2  -3  10   84.13    1.66
  -2   2   8   21.34    0.78
   2  -2  -8   19.93    0.71
  -2   2   8   21.70    0.79
  -2   2   7   17.60    0.76
  -2   2   7   19.72    0.93
  -2   2   7   18.89    0.85
  -2   2   7   19.03    0.88
  -2   2   6   20.94    0.89
  -2   2   6   22.68    1.00
  -2   2   6   20.97    1.05
  -2   2   6   22.09    0.99
   2  -2  -6   22.31    0.99
  -2   2   5    0.99    0.19
  -2   2   5    0.92    0.21
  -2   2   5    1.19    0.26
  -2   2   5    1.02    0.23
  -2   2   5    1.24    0.21
  -2   2   5    1.26    0.25
  -2   2   4   94.78    1.84
  -2   2   4   97.57    2.10
  -2   2   4   94.83    2.21
  -2   2   4   99.73    2.12
  -2   2   4   95.69    2.09
  -2   2   4  100.91    2.17
  -2   2   4   99.07    1.93
   2  -2  -3   10.92    0.57
  -2   2   3   10.33    0.58
  -2   2   3   10.74    0.55
  -2   2   3    9.80    0.51
   2  -2  -3    9.54    0.49
  -2   2   3    9.09    0.49
  -2   2   3   11.56    0.56
   2  -2  -3   12.29    0.55
  -2   2   3   11.78    0.56
   2  -2  -3   10.12    0.42
   2  -2  -2  703.94    9.22
   2  -2  -2  728.54    9.00
  -2   2   2  688.31    9.18
  -2   2   2  728.83    8.65
  -2   2   2  697.95    9.20
   2  -2  -2  727.04    9.15
  -2   2   2  689.16    9.02
   2  -2  -2  710.84    8.89
   2  -2  -2  737.49    9.17
  -2   2   1  303.87    4.23
   2  -2  -1  313.55    4.10
  -2   2   1  304.72    3.97
   2  -2  -1  315.12    4.10
   2  -2  -1  307.18    4.31
   2  -2  -1  300.70    4.14
  -2   2   1  309.66    4.15
  -2   2   1  302.37    4.21
  -2   2   1  312.70    4.30
   2  -2  -1  308.32    4.16
  -2   2   0   51.13    0.94
  -2   2   0   49.54    0.96
  -2   2   0   50.20    0.98
   2  -2   0   51.05    0.95
   2  -2   0   50.20    0.98
  -2   2   0   49.25    0.96
   2  -2   0   50.08    1.08
  -2   2  -1   19.27    0.54
   2  -2   1   20.28    0.57
  -2   2  -1   19.47    0.49
  -2   2  -1   19.13    0.48
   2  -2   1   19.87    0.56
  -2   2  -1   18.90    0.53
   2  -2   1   19.56    0.46
  -2   2  -2    1.02    0.13
   2  -2   2    1.03    0.13
  -2   2  -2    0.92    0.13
   2  -2   2    1.01    0.14
   2  -2   2    1.15    0.11
  -2   2  -2    1.14    0.15
  -2   2  -2    1.50    0.15
  -2   2  -3  123.44    2.13
   2  -2   3  128.24    2.09
  -2   2  -3  122.77    2.04
   2  -2   3  129.97    1.95
  -2   2  -3  123.68    2.17
   2  -2   3  127.65    2.07
   2  -2   3  121.95    1.63
  -2   2  -3  132.46    2.06
  -2   2  -3  124.84    1.96
  -2   2  -3  120.04    2.10
   2  -2   3  128.20    2.15
   2  -2   4  136.74    2.31
  -2   2  -4  129.43    2.34
   2  -2   4  143.01    2.39
   2  -2   4  144.26    2.28
   2  -2   4  128.41    2.32
  -2   2  -4  134.10    2.25
   2  -2   4  137.20    2.32
   2  -2   4  141.39    2.24
  -2   2  -4  133.48    2.37
  -2   2  -4  124.95    2.38
  -2   2  -4  135.32    2.28
  -2   2  -4  145.14    2.27
  -2   2  -4  133.17    2.18
  -2   2  -4  141.19    2.26
  -2   2  -4  132.44    2.27
   2  -2   5   67.50    1.55
  -2   2  -5   62.58    1.55
  -2   2  -5   60.19    1.39
  -2   2  -5   63.01    1.56
  -2   2  -5   62.72    1.37
  -2   2  -5   61.03    1.48
  -2   2  -5   66.96    1.39
  -2   2  -5   71.22    1.38
   2  -2   5   65.07    1.48
   2  -2   5   62.96    1.46
   2  -2   5   66.79    1.57
   2  -2   5   66.66    1.49
  -2   2  -5   63.94    1.37
  -2   2  -5   62.04    1.42
   2  -2   6   42.95    1.28
  -2   2  -6   43.12    1.22
   2  -2   6   42.41    1.30
   2  -2   6   44.44    1.31
   2  -2   6   43.94    1.20
  -2   2  -6   41.29    1.34
   2  -2   6   43.88    1.32
   2  -2   6   41.93    1.22
   2  -2   6   41.91    1.33
  -2   2  -6   39.01    1.26
  -2   2  -6   42.11    1.03
   2  -2   6   44.44    1.31
  -2   2  -6   41.08    1.07
  -2   2  -7   19.76    0.88
  -2   2  -7   20.80    0.92
   2  -2   7   19.56    0.92
  -2   2  -7   20.35    0.99
   2  -2   7   20.39    0.94
   2  -2   7   20.05    0.96
   2  -2   7   19.22    0.78
   2  -2   7   20.07    0.96
   2  -2   7   20.62    0.91
   2  -2   7   18.94    0.95
   2  -2   8   98.10    2.49
   2  -2   8   99.87    2.41
  -2   2  -8  100.28    2.22
   2  -2   8   95.04    2.37
   2  -2   8   97.17    2.32
  -2   2  -8   96.90    2.42
   2  -2   8   96.46    2.49
   2  -2   8   94.91    2.36
  -2   2  -8   96.56    2.26
   2  -2   9  205.38    3.72
   2  -2   9  206.61    3.64
  -2   2  -9  207.29    3.42
  -2   2  -9  211.93    3.84
  -2   2  -9  203.65    3.57
   2  -2   9  206.54    4.00
   2  -2   9  201.91    3.96
  -2   2 -10   23.77    0.82
   2  -2  10   26.41    0.83
   2  -2  10   24.96    0.87
   2  -2  10   24.97    0.93
   2  -2  10   27.62    1.09
  -2   2 -10   25.97    0.96
  -2   1   9    0.65    0.12
  -2   1   8    0.55    0.13
  -2   1   8    0.63    0.18
   2  -1  -8    0.47    0.14
  -2   1   8    0.63    0.15
  -2   1   7   33.19    1.15
   2  -1  -7   35.14    1.26
  -2   1   7   32.97    1.28
  -2   1   7   33.40    1.12
  -2   1   7   32.98    1.13
  -2   1   7   34.22    1.23
  -2   1   6   80.87    1.96
   2  -1  -6   82.36    2.16
  -2   1   6   82.21    2.19
  -2   1   6   74.87    2.04
  -2   1   6   82.44    1.96
  -2   1   6   81.82    2.15
  -2   1   5  324.61    5.27
  -2   1   5  320.21    5.00
  -2   1   5  335.83    5.39
  -2   1   5  337.08    5.18
   2  -1  -5  320.42    5.27
  -2   1   4   61.60    1.70
  -2   1   4   61.08    1.63
  -2   1   4   61.20    1.46
  -2   1   4   60.22    1.60
  -2   1   4   63.49    1.50
  -2   1   4   60.09    1.51
  -2   1   3   25.66    0.75
  -2   1   3   24.66    0.54
   2  -1  -3   24.02    0.69
   2  -1  -3   25.06    0.77
  -2   1   3   23.98    0.79
  -2   1   3   24.52    0.91
   2  -1  -3   24.45    0.83
  -2   1   3   25.93    0.58
  -2   1   3   25.55    0.88
   2  -1  -3   24.48    0.79
  -2   1   3   25.18    0.88
   2  -1  -3   25.17    0.84
   2  -1  -3   25.36    0.90
  -2   1   2  104.28    1.60
   2  -1  -2  110.10    1.93
  -2   1   2  109.03    1.93
   2  -1  -2  109.16    1.95
  -2   1   2  110.53    1.99
  -2   1   2  112.06    2.00
  -2   1   2  107.58    1.89
   2  -1  -2  110.02    1.94
  -2   1   2  113.01    1.97
  -2   1   2  109.86    1.96
  -2   1   2  105.70    1.83
   2  -1  -2  110.19    1.87
  -2   1   1  796.71    9.91
  -2   1   1  787.65    9.96
  -2   1   1  802.85   10.01
  -2   1   1  800.64    9.70
   2  -1  -1  790.81    9.93
   2  -1  -1  792.91    9.93
   2  -1  -1  800.65    9.86
   2  -1  -1  784.07    9.98
  -2   1   1  800.40    9.98
  -2   1   0  123.95    1.87
   2  -1   0  123.47    1.86
   2  -1   0  123.20    1.86
  -2   1   0  124.89    1.82
  -2   1   0  124.60    1.88
  -2   1   0  126.26    1.90
   2  -1   0  123.18    1.87
   2  -1   1   33.87    0.72
  -2   1  -1   33.66    0.73
   2  -1   1   35.64    0.68
  -2   1  -1   34.03    0.71
   2  -1   1   33.88    0.73
  -2   1  -1   33.30    0.69
  -2   1  -1   33.59    0.69
  -2   1  -2   69.31    1.17
  -2   1  -2   67.10    1.19
   2  -1   2   68.70    1.15
   2  -1   2   69.65    1.22
  -2   1  -2   68.39    1.23
   2  -1   3  632.99    8.11
  -2   1  -3  619.33    8.11
  -2   1  -3  612.07    8.01
   2  -1   3  659.02    8.06
   2  -1   3  653.85    8.01
  -2   1  -3  653.17    8.06
  -2   1  -4  415.21    5.89
   2  -1   4  455.80    5.91
   2  -1   4  461.34    5.82
  -2   1  -4  456.81    5.93
  -2   1  -4  436.02    5.78
  -2   1  -4  393.99    5.88
  -2   1  -4  442.26    5.93
   2  -1   4  451.83    5.87
   2  -1   4  428.30    5.83
  -2   1  -4  426.08    5.76
   2  -1   4  466.22    5.87
   2  -1   4  434.92    5.80
   2  -1   5  136.82    2.35
  -2   1  -5  128.33    2.12
  -2   1  -5  129.76    2.26
  -2   1  -5  127.36    2.31
  -2   1  -5  128.23    2.37
   2  -1   5  132.43    2.27
  -2   1  -5  124.93    2.28
  -2   1  -5  130.45    2.41
   2  -1   5  130.85    2.33
   2  -1   5  128.59    2.13
  -2   1  -5  125.93    2.13
   2  -1   5  122.53    2.32
   2  -1   5  132.70    2.17
  -2   1  -6   13.86    0.59
  -2   1  -6   15.30    0.77
   2  -1   6   16.18    0.74
   2  -1   6   16.34    0.73
   2  -1   6   16.43    0.77
  -2   1  -6   16.81    0.76
   2  -1   6   17.06    0.78
   2  -1   6   15.55    0.72
   2  -1   6   14.60    0.59
  -2   1  -6   16.07    0.54
   2  -1   6   16.14    0.72
   2  -1   6   15.34    0.73
  -2   1  -7   42.72    1.34
   2  -1   7   43.34    1.39
   2  -1   7   46.06    1.48
   2  -1   7   44.24    1.45
   2  -1   7   45.92    1.41
  -2   1  -7   43.87    1.48
   2  -1   7   44.30    1.44
   2  -1   7   44.54    1.42
  -2   1  -8  166.66    3.04
  -2   1  -8  166.49    3.38
  -2   1  -8  157.79    3.26
   2  -1   8  157.91    3.33
   2  -1   8  160.33    3.38
   2  -1   8  162.89    3.21
   2  -1   8  154.80    3.34
   2  -1   8  153.92    3.31
   2  -1   8  163.62    3.19
  -2   1  -9  100.30    2.40
  -2   1  -9   96.67    2.00
   2  -1   9   94.67    2.19
  -2   1  -9   95.74    2.28
   2  -1   9   93.74    2.43
   2  -1   9   99.29    2.17
   2  -1   9   96.68    2.49
  -2   1 -10    8.24    0.51
   2  -1  10    8.46    0.60
   2  -1  10    8.38    0.56
   2  -1  10    8.56    0.60
   2  -1  10    8.15    0.60
  -2   1 -10    8.64    0.55
   2  -1  11    2.82    0.27
   2  -1  11    3.00    0.27
  -2   0   9    1.07    0.17
  -2   0   8   22.92    0.76
   2   0  -8   21.93    0.91
  -2   0   8   21.98    0.85
  -2   0   8   22.17    0.87
  -2   0   8   22.09    0.97
   2   0  -7  178.61    3.54
  -2   0   7  180.75    3.28
  -2   0   7  178.18    3.60
   2   0  -6  340.09    5.61
  -2   0   6  341.33    5.38
  -2   0   6  325.04    5.66
  -2   0   6  352.56    5.75
   2   0  -6  347.48    4.92
  -2   0   6  330.46    5.07
  -2   0   6  331.13    5.59
  -2   0   5   42.42    1.11
  -2   0   5   42.43    1.48
   2   0  -5   43.46    1.43
  -2   0   5   43.43    1.49
  -2   0   5   45.35    1.38
  -2   0   5   44.72    1.40
   2   0  -5   43.95    1.15
  -2   0   5   44.05    1.22
  -2   0   4   21.30    0.66
  -2   0   4   21.12    0.91
   2   0  -4   18.97    0.64
   2   0  -4   20.55    0.87
   2   0  -4   19.32    0.67
  -2   0   4   20.31    0.90
  -2   0   4   20.93    0.82
   2   0  -3    4.86    0.32
   2   0  -3    5.33    0.37
  -2   0   3    5.46    0.30
   2   0  -3    4.68    0.27
  -2   0   3    4.88    0.38
   2   0  -3    4.94    0.36
  -2   0   3    4.86    0.35
  -2   0   3    5.26    0.38
  -2   0   3    5.55    0.40
   2   0  -3    4.92    0.35
  -2   0   3    5.36    0.32
  -2   0   3    5.11    0.39
  -2   0   2   67.37    1.41
   2   0  -2   68.39    1.37
   2   0  -2   67.18    1.40
  -2   0   2   69.19    1.39
   2   0  -2   65.49    1.37
   2   0  -2   64.67    1.38
  -2   0   2   66.43    1.44
  -2   0   2   67.33    1.41
  -2   0   2   71.28    1.44
  -2   0   1  761.31    9.55
  -2   0   1  769.81    9.50
   2   0  -1  761.45    9.47
  -2   0   1  754.15    9.48
   2   0  -1  763.75    9.51
   2   0  -1  738.33    9.49
   2   0  -1  762.06    9.51
  -2   0   1  753.20    9.52
  -2   0   0  182.22    2.55
  -2   0   0  183.04    2.50
   2   0   0  183.09    2.56
   2   0   0  176.84    2.54
   2   0   0  182.76    2.56
   2   0   1  177.20    2.41
   2   0   1  176.81    2.46
  -2   0  -1  174.15    2.43
  -2   0  -2  853.93   10.40
   2   0   2  851.67   10.42
   2   0   2  856.28   10.40
  -2   0  -3  543.55    6.56
  -2   0  -3  513.83    6.60
   2   0   3  498.72    6.14
   2   0   3  536.42    6.55
   2   0   3  531.34    6.49
   2   0   3  509.39    6.54
  -2   0  -3  518.98    6.47
   2   0   4  844.17   10.18
   2   0   4  831.38   10.35
  -2   0  -4  773.92   10.33
  -2   0  -4  798.35   10.14
  -2   0  -4  857.41   10.46
   2   0   4  834.99   10.34
  -2   0  -4  813.60   10.25
   2   0   4  832.15   10.25
   2   0   4  817.31   10.09
  -2   0  -5   33.39    0.90
   2   0   5   35.58    0.85
   2   0   5   34.75    0.89
  -2   0  -5   33.83    0.83
   2   0   5   34.69    0.95
   2   0   5   35.94    0.94
  -2   0  -5   36.95    1.04
   2   0   5   34.99    0.84
  -2   0  -5   35.52    0.84
  -2   0  -5   36.25    0.98
  -2   0  -5   37.83    1.03
   2   0   5   36.19    0.98
   2   0   5   37.21    1.05
  -2   0  -6   11.70    0.49
  -2   0  -6   12.80    0.64
   2   0   6   13.27    0.51
   2   0   6   12.88    0.68
  -2   0  -6   13.01    0.45
   2   0   6   12.53    0.68
   2   0   6   12.50    0.64
   2   0   6   13.26    0.62
   2   0   6   13.21    0.65
   2   0   6   13.55    0.66
   2   0   6   13.18    0.62
   2   0   7   57.38    1.53
  -2   0  -7   55.93    1.53
   2   0   7   56.01    1.53
  -2   0  -7   56.75    1.69
   2   0   7   57.45    1.65
   2   0   7   57.81    1.69
   2   0   7   54.20    1.61
   2   0   7   57.42    1.65
   2   0   8  109.82    2.65
   2   0   8  115.71    2.45
  -2   0  -8  113.13    2.35
  -2   0  -8  115.53    2.68
   2   0   8  110.95    2.64
   2   0   8  109.04    2.41
   2   0   8  112.25    2.66
   2   0   8  114.21    2.69
  -2   0  -9   16.77    0.70
   2   0   9   15.61    0.74
   2   0   9   16.76    0.95
  -2   0  -9   16.05    0.88
   2   0   9   15.91    0.90
   2   0   9   16.07    0.75
   2   0   9   16.91    0.94
  -2   0  -9   16.73    0.90
   2   0  10   11.68    0.71
  -2   0 -10   13.46    0.69
  -2   0 -10   11.68    0.65
   2   0  10   11.59    0.69
   2   0  10   11.31    0.67
   2   0  10   12.38    0.73
   2   0  11    8.27    0.46
   2   0  11    7.30    0.40
   2   0  11    7.96    0.40
  -2  -1   9    0.79    0.13
   2   1  -9    1.00    0.16
  -2  -1   9    1.03    0.16
  -2  -1   9    1.04    0.18
  -2  -1   8  104.83    2.20
   2   1  -8  104.05    2.31
  -2  -1   8  104.23    2.30
  -2  -1   8  104.11    2.38
  -2  -1   7  103.23    2.13
  -2  -1   7  102.90    2.52
  -2  -1   7  101.83    2.52
   2   1  -7  103.78    2.48
   2   1  -7  104.30    2.03
  -2  -1   7  100.39    2.51
  -2  -1   7   99.41    2.17
  -2  -1   6  103.58    2.25
   2   1  -6  103.04    2.13
   2   1  -6  105.96    2.55
  -2  -1   6  102.80    2.25
  -2  -1   6  104.01    2.57
  -2  -1   6  105.59    2.60
  -2  -1   6  106.10    1.99
  -2  -1   6  105.98    2.56
  -2  -1   5   32.74    1.08
   2   1  -5   30.68    1.20
  -2  -1   5   35.72    1.33
  -2  -1   5   33.85    1.28
  -2  -1   5   34.66    1.24
  -2  -1   5   32.90    0.88
   2   1  -5   32.45    1.02
  -2  -1   4    1.35    0.22
   2   1  -4    2.41    0.25
  -2  -1   4    1.74    0.21
  -2  -1   4    1.36    0.24
  -2  -1   4    1.41    0.24
   2   1  -4    1.19    0.19
  -2  -1   4    1.52    0.26
   2   1  -4    1.93    0.27
  -2  -1   4    1.79    0.21
   2   1  -3  193.67    3.15
  -2  -1   3  185.17    3.10
  -2  -1   3  189.11    3.12
   2   1  -3  176.18    2.92
   2   1  -3  186.20    3.02
   2   1  -3  192.05    3.05
  -2  -1   3  188.10    2.88
   2   1  -3  174.24    2.99
  -2  -1   3  187.90    3.10
   2   1  -3  178.94    3.00
  -2  -1   3  180.03    2.98
  -2  -1   3  185.50    3.06
  -2  -1   3  200.38    3.21
  -2  -1   3  190.41    2.91
   2   1  -3  185.41    2.83
   2   1  -2  763.53    9.82
   2   1  -2  778.91    9.90
  -2  -1   2  769.22    9.84
  -2  -1   2  797.58    9.91
  -2  -1   2  781.18    9.85
  -2  -1   2  773.14    9.93
   2   1  -2  781.65    9.86
   2   1  -2  795.57    9.91
   2   1  -2  771.81    9.87
  -2  -1   2  763.36    9.87
  -2  -1   2  753.99    9.71
  -2  -1   2  773.47    9.91
   2   1  -2  776.00    9.90
  -2  -1   1  660.24    8.34
  -2  -1   1  666.66    8.33
   2   1  -1  653.36    8.35
  -2  -1   1  650.52    8.36
  -2  -1   1  651.18    8.36
   2   1  -1  656.86    8.35
   2   1  -1  674.05    8.36
   2   1  -1  653.26    8.35
   2   1   0  161.56    2.31
  -2  -1   0  166.36    2.30
   2   1   0  159.27    2.31
   2   1   0  158.60    2.31
   2   1   0  156.32    2.30
  -2  -1  -1   21.73    0.51
   2   1   1   21.85    0.51
   2   1   1   22.19    0.47
  -2  -1  -1   21.80    0.44
   2   1   1   22.20    0.52
   2   1   2  287.66    3.46
  -2  -1  -2  287.35    3.49
  -2  -1  -2  286.43    3.53
   2   1   2  281.32    3.54
   2   1   2  282.76    3.46
   2   1   3  257.31    3.31
  -2  -1  -3  254.46    3.34
  -2  -1  -3  256.08    3.54
   2   1   3  258.25    3.49
   2   1   3  248.19    3.16
   2   1   3  251.14    3.26
   2   1   4  147.22    2.16
   2   1   4  145.96    2.36
   2   1   4  148.40    2.33
   2   1   4  144.73    2.00
  -2  -1  -4  139.45    2.06
   2   1   4  145.38    2.07
  -2  -1  -4  144.64    2.40
   2   1   5   41.18    0.94
   2   1   5   40.43    0.83
  -2  -1  -5   39.69    0.83
  -2  -1  -5   40.00    0.92
   2   1   5   41.54    0.89
  -2  -1  -5   40.22    1.12
   2   1   5   42.34    0.83
   2   1   5   39.28    0.94
   2   1   5   41.50    1.15
   2   1   6    3.02    0.28
   2   1   6    3.16    0.29
  -2  -1  -6    3.67    0.34
   2   1   6    3.39    0.35
   2   1   6    3.33    0.32
   2   1   6    3.31    0.33
   2   1   7   92.83    1.99
   2   1   7   89.08    1.93
   2   1   7   92.35    2.15
   2   1   7   87.70    2.20
  -2  -1  -7   92.11    2.03
   2   1   7   92.18    2.18
   2   1   8  105.04    2.63
  -2  -1  -8  109.44    2.59
   2   1   8  108.94    2.26
   2   1   8  108.89    2.61
  -2  -1  -8  109.35    2.25
   2   1   8  104.15    2.16
   2   1   8  102.79    2.51
   2   1   8  109.73    2.64
   2   1   9   55.88    1.85
   2   1   9   56.62    1.74
  -2  -1  -9   60.81    1.79
  -2  -1  -9   61.78    1.40
   2   1   9   57.35    1.79
   2   1   9   58.40    1.77
   2   1   9   58.17    1.85
  -2  -1 -10   30.04    1.04
  -2  -1 -10   29.05    1.08
   2   1  10   30.28    1.17
   2   1  10   28.02    1.05
   2   1  10   28.31    1.02
   2   1  10   28.81    1.07
   2   1  11   35.37    1.00
  -2  -2   9   10.84    0.46
  -2  -2   9   10.86    0.52
   2   2  -9   10.56    0.49
  -2  -2   9   10.61    0.53
   2   2  -8    3.50    0.37
  -2  -2   8    3.59    0.37
  -2  -2   8    3.60    0.33
  -2  -2   8    3.22    0.37
  -2  -2   8    3.60    0.40
  -2  -2   7  123.19    2.60
   2   2  -7  124.88    2.77
  -2  -2   7  120.26    2.77
   2   2  -7  119.94    2.36
  -2  -2   7  121.19    2.83
  -2  -2   6    1.24    0.29
   2   2  -6    1.35    0.28
  -2  -2   6    1.25    0.25
  -2  -2   6    1.72    0.32
  -2  -2   6    1.60    0.30
  -2  -2   5  108.97    2.55
   2   2  -5  110.20    2.54
  -2  -2   5  111.84    2.36
  -2  -2   5  110.82    2.60
  -2  -2   5  117.74    2.08
  -2  -2   5  111.96    2.53
   2   2  -5  108.58    2.26
  -2  -2   5  111.45    2.57
  -2  -2   4  113.46    2.36
   2   2  -4  115.11    2.45
  -2  -2   4  117.03    2.48
  -2  -2   4  114.17    2.09
   2   2  -4  114.73    2.23
  -2  -2   4  119.67    2.30
  -2  -2   4  116.26    2.45
  -2  -2   4  121.05    2.18
   2   2  -3  264.17    3.98
   2   2  -3  279.17    4.25
  -2  -2   3  266.15    3.94
   2   2  -3  254.02    4.01
  -2  -2   3  272.76    4.16
  -2  -2   3  267.05    4.10
  -2  -2   3  268.68    3.97
  -2  -2   3  268.93    4.09
  -2  -2   3  259.09    4.02
  -2  -2   3  272.72    4.21
   2   2  -3  266.55    4.02
   2   2  -3  270.59    3.97
  -2  -2   2  395.60    5.49
   2   2  -2  427.88    5.66
  -2  -2   2  402.81    5.51
  -2  -2   2  404.25    5.55
   2   2  -2  409.87    5.52
   2   2  -2  396.54    5.38
  -2  -2   2  416.87    5.50
  -2  -2   2  405.58    5.56
   2   2  -2  414.58    5.51
  -2  -2   2  405.75    5.59
   2   2  -2  381.62    5.53
  -2  -2   2  407.46    5.53
   2   2  -2  400.65    5.54
  -2  -2   1   27.76    0.77
  -2  -2   1   28.36    0.74
   2   2  -1   28.12    0.74
   2   2  -1   27.95    0.76
  -2  -2   1   28.58    0.75
  -2  -2   1   28.84    0.76
   2   2  -1   28.90    0.79
   2   2  -1   29.13    0.75
   2   2  -1   28.16    0.77
  -2  -2   0   45.61    0.89
  -2  -2   0   42.36    0.87
  -2  -2   0   43.50    0.87
   2   2   0   44.25    0.89
   2   2   0   44.49    0.88
   2   2   0   44.36    0.90
  -2  -2   0   42.88    0.90
   2   2   1   78.51    1.32
   2   2   1   77.08    1.20
   2   2   1   74.77    1.20
  -2  -2  -1   77.01    1.13
  -2  -2  -1   73.54    1.21
  -2  -2  -1   74.26    1.22
  -2  -2  -1   75.24    1.22
  -2  -2  -2    5.53    0.22
   2   2   2    5.09    0.25
   2   2   2    4.72    0.23
  -2  -2  -2    4.76    0.23
  -2  -2  -2    4.79    0.21
  -2  -2  -3    9.80    0.39
   2   2   3    9.81    0.26
  -2  -2  -3   10.14    0.30
   2   2   3   10.11    0.38
   2   2   3    9.63    0.35
   2   2   4   70.80    1.04
  -2  -2  -4   73.85    1.12
  -2  -2  -4   74.78    1.48
   2   2   4   74.35    1.41
   2   2   4   73.16    1.47
  -2  -2  -4   69.31    1.26
   2   2   5   79.97    1.68
   2   2   5   82.54    1.78
  -2  -2  -5   78.18    1.73
  -2  -2  -5   80.74    1.52
  -2  -2  -5   81.39    1.65
   2   2   6  124.28    2.50
   2   2   6  123.22    2.48
  -2  -2  -6  125.96    2.00
   2   2   6  123.94    2.07
   2   2   6  124.06    2.12
   2   2   6  122.20    2.43
   2   2   6  122.86    2.31
   2   2   6  126.09    2.44
   2   2   7  142.78    3.06
   2   2   7  150.12    2.87
  -2  -2  -7  154.91    2.85
   2   2   7  147.79    3.02
   2   2   7  150.55    2.98
   2   2   8  115.20    2.84
  -2  -2  -8  126.47    2.43
   2   2   8  117.46    2.75
  -2  -2  -8  130.18    2.86
   2   2   8  124.81    2.66
   2   2   8  123.57    2.69
   2   2   8  122.65    2.79
   2   2   9   58.51    1.87
   2   2   9   59.55    1.64
   2   2   9   57.54    1.72
  -2  -2  -9   62.98    1.78
   2   2   9   59.36    1.68
   2   2  10   15.36    0.80
  -2  -2 -10   14.25    0.66
   2   2  10   13.70    0.67
  -2  -2 -10   14.92    0.75
  -2  -3   9   13.44    0.51
  -2  -3   9   13.20    0.56
  -2  -3   9   12.73    0.53
  -2  -3   8    7.62    0.53
   2   3  -8    6.34    0.47
  -2  -3   8    7.18    0.51
   2   3  -8    6.88    0.39
  -2  -3   8    7.01    0.48
  -2  -3   8    7.26    0.54
   2   3  -7   53.67    1.45
  -2  -3   7   51.78    1.66
   2   3  -7   53.97    1.68
  -2  -3   7   53.02    1.61
  -2  -3   7   52.58    1.63
  -2  -3   6  124.74    2.88
   2   3  -6  122.37    2.84
  -2  -3   6  127.30    2.78
  -2  -3   6  127.20    2.90
  -2  -3   6  127.89    2.86
   2   3  -6  120.55    2.58
   2   3  -6  132.23    2.36
  -2  -3   6  121.75    2.71
   2   3  -5  153.54    3.17
  -2  -3   5  150.17    3.15
  -2  -3   5  148.34    3.16
   2   3  -5  151.62    2.94
  -2  -3   5  152.71    3.02
  -2  -3   5  156.43    2.74
  -2  -3   5  156.64    3.17
   2   3  -4   52.33    1.45
   2   3  -4   54.38    1.59
  -2  -3   4   54.83    1.59
  -2  -3   4   52.29    1.53
  -2  -3   4   56.78    1.40
  -2  -3   4   54.95    1.49
  -2  -3   4   56.56    1.59
  -2  -3   4   54.92    1.51
   2   3  -3    2.36    0.27
   2   3  -3    2.08    0.25
  -2  -3   3    2.22    0.28
   2   3  -3    2.10    0.25
   2   3  -3    2.68    0.31
  -2  -3   3    1.91    0.24
   2   3  -3    2.79    0.20
  -2  -3   3    2.07    0.24
  -2  -3   3    1.74    0.24
  -2  -3   3    2.13    0.25
   2   3  -3    2.42    0.25
  -2  -3   2   31.25    0.90
   2   3  -2   30.46    0.93
   2   3  -2   30.64    0.90
   2   3  -2   30.53    0.90
  -2  -3   2   31.31    0.94
  -2  -3   2   29.66    0.88
   2   3  -2   31.31    0.97
  -2  -3   2   30.91    0.87
   2   3  -2   30.43    0.85
  -2  -3   2   33.27    0.91
   2   3  -2   31.10    0.86
  -2  -3   2   32.49    0.93
  -2  -3   2   32.21    0.92
  -2  -3   2   31.43    0.91
   2   3  -1   75.20    1.46
   2   3  -1   79.16    1.59
   2   3  -1   81.10    1.52
   2   3  -1   81.55    1.58
   2   3  -1   82.72    1.46
  -2  -3   1   82.00    1.46
  -2  -3   1   79.66    1.46
  -2  -3   1   83.01    1.57
   2   3  -1   79.22    1.51
  -2  -3   1   76.66    1.49
   2   3  -1   81.92    1.45
   2   3   0  102.63    1.77
  -2  -3   0  104.14    1.62
   2   3   0  107.26    1.69
  -2  -3   0  104.58    1.63
  -2  -3   0  103.34    1.69
   2   3   0  102.22    1.79
   2   3   1   41.52    0.87
  -2  -3  -1   40.16    0.78
  -2  -3  -1   41.38    0.77
  -2  -3  -1   39.86    0.76
   2   3   1   41.86    0.75
   2   3   1   39.65    0.92
   2   3   1   40.46    0.76
  -2  -3  -1   39.19    0.77
   2   3   2  206.72    2.62
  -2  -3  -2  202.84    2.54
   2   3   2  201.92    2.66
   2   3   2  210.18    2.84
  -2  -3  -2  186.62    2.36
  -2  -3  -2  188.61    2.35
   2   3   2  208.30    2.89
  -2  -3  -3  296.93    4.00
  -2  -3  -3  291.77    3.74
  -2  -3  -3  291.29    3.72
   2   3   3  298.88    3.99
  -2  -3  -4  236.89    3.40
  -2  -3  -4  244.38    3.42
   2   3   4  242.71    3.42
  -2  -3  -4  245.60    3.09
   2   3   5  535.38    7.10
  -2  -3  -5  504.47    6.81
  -2  -3  -5  490.13    6.60
  -2  -3  -5  505.78    6.91
   2   3   5  520.67    6.96
   2   3   5  530.57    6.99
   2   3   6   23.07    0.96
   2   3   6   20.84    0.78
  -2  -3  -6   22.97    0.70
   2   3   6   22.67    0.81
   2   3   6   22.75    0.77
   2   3   6   22.44    0.89
   2   3   6   22.19    0.76
   2   3   6   23.03    0.92
   2   3   6   21.53    0.68
   2   3   6   21.53    0.74
   2   3   6   22.70    0.85
   2   3   7    8.86    0.66
   2   3   7    9.46    0.55
   2   3   7    8.69    0.51
  -2  -3  -7    9.74    0.58
   2   3   7    8.98    0.61
   2   3   7    9.35    0.56
   2   3   7    8.81    0.63
   2   3   7    9.50    0.56
   2   3   7    9.40    0.61
   2   3   8   29.40    1.17
   2   3   8   28.67    1.28
  -2  -3  -8   31.43    1.01
   2   3   8   30.61    1.00
   2   3   8   29.48    1.04
   2   3   8   29.70    1.07
   2   3   9   23.29    1.11
   2   3   9   23.38    0.96
  -2  -3  -9   22.18    0.98
   2   3  10   12.53    0.69
  -2  -3 -10   13.51    0.59
   2   3  10   12.80    0.56
  -2  -3 -10   13.03    0.66
   2   4  -8   44.73    1.26
   2   4  -8   43.05    1.08
  -2  -4   8   46.24    1.29
  -2  -4   8   45.87    1.36
  -2  -4   8   44.84    1.23
  -2  -4   8   45.36    1.30
  -2  -4   7   64.12    1.84
   2   4  -7   65.84    1.82
  -2  -4   7   63.27    1.82
  -2  -4   7   63.37    1.70
   2   4  -6  154.65    2.87
  -2  -4   6  153.48    3.21
  -2  -4   6  152.97    3.26
  -2  -4   6  150.44    3.24
   2   4  -6  151.64    3.21
   2   4  -6  151.18    3.02
  -2  -4   6  155.51    3.02
   2   4  -5   22.88    1.00
  -2  -4   5   21.44    1.03
  -2  -4   5   22.58    1.02
  -2  -4   5   22.44    1.06
   2   4  -5   21.44    1.04
  -2  -4   5   22.79    0.89
  -2  -4   5   22.02    0.91
   2   4  -4    2.52    0.33
   2   4  -4    2.97    0.26
  -2  -4   4    2.85    0.34
  -2  -4   4    2.90    0.32
  -2  -4   4    3.17    0.35
   2   4  -4    3.61    0.40
  -2  -4   4    3.39    0.39
  -2  -4   4    2.58    0.33
   2   4  -3    6.82    0.53
  -2  -4   3    6.72    0.49
  -2  -4   3    6.49    0.46
   2   4  -3    6.83    0.40
   2   4  -3    8.18    0.37
   2   4  -3    5.98    0.37
  -2  -4   3    8.62    0.53
   2   4  -3    6.50    0.39
   2   4  -3    6.38    0.48
  -2  -4   3    5.72    0.39
  -2  -4   3    6.18    0.44
   2   4  -2  219.36    3.36
   2   4  -2  215.80    3.57
   2   4  -2  217.32    3.63
   2   4  -2  225.63    3.26
  -2  -4   2  219.39    3.44
  -2  -4   2  217.84    3.54
   2   4  -2  217.94    3.25
   2   4  -2  213.91    3.53
   2   4  -2  209.57    3.33
   2   4  -2  221.45    3.28
   2   4  -2  219.61    3.27
  -2  -4   2  209.88    3.26
  -2  -4   2  225.50    3.48
  -2  -4   2  224.00    3.57
  -2  -4   1  597.18    7.64
   2   4  -1  610.09    7.59
  -2  -4   1  604.41    7.41
   2   4  -1  565.80    7.74
   2   4  -1  581.35    7.78
   2   4  -1  545.22    7.69
   2   4  -1  602.37    7.41
  -2  -4   1  573.55    7.42
  -2  -4   1  578.57    7.53
   2   4  -1  553.31    7.61
  -2  -4   1  591.82    7.41
  -2  -4   1  578.94    7.82
   2   4  -1  589.77    7.60
   2   4  -1  540.17    7.73
   2   4   0  159.90    2.61
   2   4   0  165.44    2.65
   2   4   0  169.75    2.66
   2   4   0  167.88    2.68
  -2  -4   0  162.09    2.51
   2   4   0  161.07    2.29
   2   4   0  166.90    2.71
  -2  -4   0  168.06    2.34
  -2  -4   0  166.57    2.34
   2   4   0  167.76    2.72
   2   4   0  166.89    2.44
   2   4   1    5.46    0.33
   2   4   1    5.34    0.29
   2   4   1    5.16    0.20
  -2  -4  -1    5.30    0.26
  -2  -4  -1    5.34    0.22
   2   4   1    5.32    0.32
   2   4   1    5.31    0.33
   2   4   1    5.75    0.35
   2   4   1    5.68    0.35
  -2  -4  -1    5.34    0.22
   2   4   1    5.77    0.22
   2   4   2  356.20    4.49
   2   4   2  348.34    4.84
  -2  -4  -2  348.70    4.39
   2   4   2  356.07    4.72
   2   4   2  355.23    4.90
  -2  -4  -2  345.18    4.48
   2   4   2  354.30    4.44
  -2  -4  -3  237.49    3.05
  -2  -4  -3  231.95    2.97
   2   4   3  228.58    3.22
  -2  -4  -3  230.36    3.22
   2   4   3  229.04    3.18
  -2  -4  -3  229.70    3.18
  -2  -4  -3  234.92    3.55
  -2  -4  -4  253.40    3.54
  -2  -4  -4  244.03    3.48
  -2  -4  -4  243.05    3.46
   2   4   4  242.75    3.45
   2   4   5    1.01    0.21
   2   4   5    0.92    0.19
   2   4   5    0.56    0.12
   2   4   5    0.83    0.18
   2   4   5    0.97    0.17
   2   4   5    0.89    0.18
   2   4   5    0.81    0.16
   2   4   6   24.29    1.05
   2   4   6   25.01    0.97
   2   4   6   24.08    0.93
   2   4   6   24.10    0.89
   2   4   6   23.80    0.87
   2   4   6   22.70    0.87
   2   4   6   25.30    1.01
   2   4   7   10.02    0.73
   2   4   7   10.12    0.63
   2   4   7    9.40    0.57
   2   4   7   10.11    0.60
   2   4   7    8.58    0.57
   2   4   7    9.59    0.68
   2   4   8   54.18    1.82
   2   4   8   57.63    1.46
   2   4   8   57.34    1.55
  -2  -4  -8   60.01    1.41
   2   4   8   52.88    1.49
   2   4   9   87.87    2.23
   2   4   9   84.17    1.75
   2   4  10   26.65    0.93
  -2  -4 -10   25.90    0.87
   2   5  -8   23.92    0.79
  -2  -5   8   24.63    0.83
   2   5  -8   22.29    0.69
  -2  -5   8   23.55    0.85
  -2  -5   8   23.67    0.66
  -2  -5   8   24.13    0.87
  -2  -5   7   95.15    2.23
   2   5  -7   93.62    2.03
  -2  -5   7   92.87    2.15
   2   5  -7   91.13    1.83
   2   5  -7   95.00    2.13
   2   5  -7   89.54    1.76
  -2  -5   7   89.79    1.86
   2   5  -6   24.39    1.09
   2   5  -6   24.65    1.05
  -2  -5   6   24.15    1.09
  -2  -5   6   24.41    1.10
   2   5  -6   25.22    1.02
  -2  -5   6   24.18    0.84
  -2  -5   6   26.91    1.16
  -2  -5   6   23.41    0.89
   2   5  -5    1.82    0.30
   2   5  -5    1.80    0.32
  -2  -5   5    1.45    0.28
  -2  -5   5    1.34    0.29
  -2  -5   5    1.29    0.29
  -2  -5   5    1.45    0.22
  -2  -5   5    1.57    0.25
   2   5  -4   43.56    1.50
  -2  -5   4   44.34    1.45
   2   5  -4   46.47    1.25
   2   5  -4   42.51    1.47
  -2  -5   4   44.25    1.44
  -2  -5   4   44.30    1.39
  -2  -5   4   44.25    1.44
   2   5  -3   98.46    2.32
   2   5  -3  101.06    2.37
  -2  -5   3   93.68    2.12
   2   5  -3   97.29    2.04
  -2  -5   3   96.39    2.15
  -2  -5   3   97.02    2.20
  -2  -5   3   94.20    2.12
   2   5  -2  451.80    6.51
   2   5  -2  461.48    6.16
  -2  -5   2  479.29    6.48
  -2  -5   2  446.68    6.45
  -2  -5   2  484.49    6.77
  -2  -5   2  465.01    6.42
   2   5  -2  445.84    6.70
   2   5  -2  441.34    6.73
   2   5  -2  452.43    6.70
   2   5  -1  180.85    3.10
   2   5  -1  189.02    2.87
  -2  -5   1  187.34    2.82
  -2  -5   1  190.65    3.01
  -2  -5   1  183.46    3.20
   2   5  -1  189.85    3.22
   2   5  -1  192.74    2.61
   2   5  -1  191.07    3.25
   2   5  -1  190.19    3.03
   2   5  -1  183.83    3.29
   2   5  -1  195.49    3.36
   2   5   0   10.93    0.51
   2   5   0   11.70    0.60
   2   5   0   11.41    0.56
  -2  -5   0   11.22    0.57
   2   5   0   11.02    0.27
  -2  -5   0   11.77    0.49
  -2  -5   0   11.33    0.44
   2   5   0   11.46    0.28
   2   5   0   11.45    0.59
   2   5   0   11.57    0.60
   2   5   0   11.96    0.41
   2   5   0   11.57    0.55
   2   5   1   12.33    0.56
   2   5   1   11.48    0.45
   2   5   1   11.72    0.56
  -2  -5  -1   11.75    0.53
   2   5   1   13.41    0.62
   2   5   1   12.62    0.57
  -2  -5  -1   11.36    0.43
   2   5   1   12.96    0.60
   2   5   2  104.74    1.91
   2   5   2  103.19    1.50
  -2  -5  -2  108.75    1.76
   2   5   2  107.95    2.02
  -2  -5  -2  105.84    1.56
   2   5   3  158.24    2.68
   2   5   3  150.76    2.28
   2   5   3  150.86    2.68
   2   5   3  152.94    2.65
   2   5   4    1.57    0.24
   2   5   4    1.20    0.19
   2   5   4    1.49    0.24
   2   5   4    1.60    0.24
   2   5   4    1.27    0.21
   2   5   4    1.31    0.18
   2   5   5    7.90    0.50
   2   5   5    8.11    0.53
   2   5   5    7.35    0.54
   2   5   5    8.83    0.54
   2   5   5    7.93    0.56
   2   5   5    8.38    0.59
   2   5   6   16.60    0.91
   2   5   6   16.51    0.86
   2   5   6   17.78    0.88
   2   5   6   16.20    0.77
   2   5   6   17.89    0.83
   2   5   6   17.08    0.86
   2   5   7  244.23    4.30
   2   5   7  245.03    4.10
   2   5   7  235.12    4.50
   2   5   7  240.19    4.20
   2   5   7  241.62    4.36
   2   5   8  174.50    3.61
   2   5   8  171.95    3.14
   2   5   9   22.71    0.96
   2   5   9   21.59    0.75
  -2  -5  -9   21.27    0.76
  -2  -6   8   18.97    0.61
  -2  -6   8   19.90    0.71
   2   6  -7   92.08    1.86
  -2  -6   7   95.56    2.03
  -2  -6   7   97.54    2.16
   2   6  -7   91.98    1.83
   2   6  -7   99.87    2.01
   2   6  -7   98.15    2.00
  -2  -6   7   93.84    1.99
   2   6  -6   10.76    0.66
  -2  -6   6    9.75    0.64
  -2  -6   6    9.45    0.67
  -2  -6   6   10.07    0.64
   2   6  -6    9.72    0.63
   2   6  -6   10.09    0.65
  -2  -6   6    9.98    0.52
   2   6  -5   12.92    0.79
   2   6  -5   13.21    0.80
  -2  -6   5   13.19    0.76
  -2  -6   5   12.49    0.78
   2   6  -5   12.51    0.79
  -2  -6   5   13.06    0.71
  -2  -6   5   12.77    0.76
   2   6  -4   69.09    2.02
   2   6  -4   69.80    1.98
  -2  -6   4   66.68    1.84
   2   6  -4   67.81    1.68
  -2  -6   4   65.31    1.85
  -2  -6   4   66.81    1.86
  -2  -6   4   66.62    1.80
  -2  -6   3  207.72    3.65
   2   6  -3  212.32    3.77
  -2  -6   3  211.32    3.75
  -2  -6   3  213.16    3.93
  -2  -6   3  209.70    3.74
   2   6  -3  222.83    4.06
   2   6  -3  211.80    4.08
  -2  -6   2   90.97    2.26
   2   6  -2   90.86    2.30
  -2  -6   2   94.56    2.04
   2   6  -2   95.75    2.22
  -2  -6   2   95.60    1.95
   2   6  -2   94.20    2.23
  -2  -6   2   93.15    2.05
  -2  -6   1    4.45    0.34
  -2  -6   1    4.50    0.35
   2   6  -1    4.76    0.47
   2   6  -1    4.48    0.45
   2   6  -1    4.10    0.43
   2   6  -1    4.48    0.41
   2   6   0    0.67    0.15
  -2  -6   0    0.97    0.16
   2   6   0    1.56    0.24
   2   6   0    1.03    0.22
   2   6   0    1.37    0.24
   2   6   0    0.87    0.22
   2   6   0    1.21    0.19
   2   6   1   46.82    1.23
   2   6   1   45.07    1.12
   2   6   1   45.61    1.27
   2   6   1   43.88    1.25
   2   6   1   45.11    1.27
   2   6   1   44.51    1.25
  -2  -6  -1   44.09    1.05
   2   6   1   47.54    1.37
   2   6   1   45.67    1.24
   2   6   2  122.87    2.42
   2   6   2  125.58    2.38
   2   6   2  123.36    2.23
   2   6   2  121.29    2.45
   2   6   2  121.31    2.36
   2   6   2  124.26    2.39
   2   6   3  169.91    3.06
   2   6   3  164.44    2.93
   2   6   3  163.40    3.08
   2   6   3  163.02    3.01
   2   6   3  159.88    3.10
   2   6   4   10.26    0.68
   2   6   4    9.63    0.58
   2   6   4   10.17    0.65
   2   6   4   10.02    0.50
   2   6   4    9.50    0.62
   2   6   4    9.89    0.64
   2   6   5   88.47    2.27
   2   6   5   88.77    2.23
   2   6   5   87.23    2.26
   2   6   5   89.20    2.08
   2   6   5   86.90    2.17
   2   6   5   86.49    1.98
   2   6   6  179.34    3.71
   2   6   6  183.60    3.68
   2   6   6  191.90    3.74
   2   6   6  186.43    3.47
   2   6   6  189.23    3.57
   2   6   6  186.05    3.49
   2   6   7   79.09    2.20
   2   6   7   80.06    2.10
   2   6   7   82.35    2.16
   2   6   7   80.78    1.98
   2   6   7   81.06    2.08
   2   6   8   55.87    1.56
   2   6   8   54.42    1.65
   2   6   9   10.71    0.47
   2   6   9   10.81    0.56
  -2  -7   7   70.65    1.59
  -2  -7   7   69.75    1.45
   2   7  -7   71.46    1.49
   2   7  -7   67.41    1.37
   2   7  -7   67.43    1.41
   2   7  -7   68.76    1.31
  -2  -7   7   65.72    1.20
  -2  -7   6   44.84    1.39
   2   7  -6   45.31    1.25
   2   7  -6   44.50    1.34
  -2  -7   6   41.56    1.06
   2   7  -6   44.83    1.35
   2   7  -6   44.57    1.38
  -2  -7   6   42.63    1.09
  -2  -7   6   43.84    1.28
  -2  -7   5   13.05    0.68
  -2  -7   5   12.82    0.71
   2   7  -5   13.37    0.81
  -2  -7   5   13.61    0.77
  -2  -7   5   12.70    0.70
   2   7  -5   12.84    0.73
   2   7  -5   13.44    0.80
   2   7  -4   34.94    1.41
   2   7  -4   33.94    1.29
  -2  -7   4   35.64    1.32
  -2  -7   4   36.61    1.26
  -2  -7   4   33.97    1.26
  -2  -7   4   33.68    1.14
   2   7  -4   35.78    1.43
   2   7  -3   68.05    1.93
  -2  -7   3   68.72    1.63
  -2  -7   3   65.11    1.74
  -2  -7   3   67.81    1.79
   2   7  -3   66.95    2.07
  -2  -7   3   63.59    1.93
   2   7  -2   33.72    1.40
   2   7  -2   34.06    1.28
  -2  -7   2   32.79    1.12
   2   7  -2   33.67    1.41
  -2  -7   2   32.25    1.32
  -2  -7   2   33.77    1.14
   2   7  -1   14.99    0.90
  -2  -7   1   16.81    0.73
   2   7  -1   15.86    0.91
  -2  -7   1   17.02    0.68
   2   7   0   48.15    1.61
   2   7   0   45.32    1.48
   2   7   0   48.23    1.43
  -2  -7   0   48.38    1.19
   2   7   0   46.61    1.35
   2   7   0   49.51    1.56
   2   7   1  107.13    2.17
   2   7   1  102.05    2.13
   2   7   1   99.75    2.31
   2   7   1   99.90    2.25
   2   7   1  103.14    2.23
   2   7   1  106.63    2.31
   2   7   2  124.00    2.64
   2   7   2  129.53    2.62
   2   7   2  124.98    2.39
   2   7   2  126.92    2.74
   2   7   2  126.89    2.66
   2   7   2  132.90    2.33
   2   7   2  128.60    2.68
   2   7   3  122.20    2.30
   2   7   3  122.45    2.77
   2   7   3  121.51    2.63
   2   7   3  124.28    2.66
   2   7   3  122.99    2.77
   2   7   3  127.22    2.72
   2   7   4   92.80    2.22
   2   7   4   89.92    2.28
   2   7   4   89.14    2.33
   2   7   4   87.48    2.37
   2   7   4   91.77    2.31
   2   7   5   52.88    1.80
   2   7   5   53.09    1.73
   2   7   5   55.32    1.66
   2   7   5   54.08    1.75
   2   7   5   51.96    1.42
   2   7   5   53.96    1.75
   2   7   6    4.33    0.49
   2   7   6    4.03    0.42
   2   7   6    3.85    0.44
   2   7   6    4.45    0.49
   2   7   6    4.15    0.39
   2   7   6    4.75    0.50
   2   7   7    4.72    0.47
   2   7   7    4.40    0.41
   2   7   7    4.14    0.44
   2   7   8    2.48    0.29
   2   7   8    2.19    0.27
  -2  -8   6   27.38    0.91
   2   8  -6   29.90    0.94
   2   8  -6   28.47    0.92
  -2  -8   6   27.87    0.82
   2   8  -6   29.22    1.00
   2   8  -5    0.83    0.20
   2   8  -5    0.87    0.17
  -2  -8   5    0.83    0.18
   2   8  -5    0.95    0.22
  -2  -8   5    0.89    0.21
   2   8  -5    1.00    0.24
  -2  -8   5    0.55    0.15
  -2  -8   4    6.82    0.49
  -2  -8   4    5.02    0.42
   2   8  -4    7.31    0.61
   2   8  -4    6.14    0.47
  -2  -8   4    6.04    0.51
   2   8  -4    6.84    0.58
   2   8  -3   27.99    1.08
   2   8  -3   30.61    1.34
  -2  -8   3   26.87    1.01
   2   8  -3   30.14    1.31
  -2  -8   3   28.17    1.21
  -2  -8   3   27.40    1.00
   2   8  -2   84.29    2.08
  -2  -8   2   82.80    1.87
   2   8  -2   83.02    2.34
  -2  -8   2   86.40    1.83
   2   8  -2   82.84    2.35
  -2  -8   2   77.78    2.25
   2   8  -2   82.94    2.39
   2   8  -1  184.19    3.87
   2   8  -1  187.46    3.44
   2   8  -1  187.15    3.84
   2   8  -1  195.37    3.84
  -2  -8   1  178.01    3.74
  -2  -8   1  181.93    3.11
   2   8   0    7.66    0.64
   2   8   0    8.14    0.62
   2   8   0    8.00    0.58
   2   8   0    8.29    0.57
   2   8   1   50.51    1.49
   2   8   1   47.04    1.63
   2   8   1   50.26    1.44
   2   8   1   50.12    1.58
   2   8   2   90.33    2.35
   2   8   2   90.24    2.38
   2   8   2   87.64    2.06
   2   8   3   26.52    1.21
   2   8   3   27.02    1.16
   2   8   3   25.17    1.12
   2   8   3   25.94    1.23
   2   8   3   26.58    0.97
   2   8   3   26.02    1.16
   2   8   4   69.37    2.09
   2   8   4   70.21    2.02
   2   8   4   70.14    1.98
   2   8   4   69.38    2.10
   2   8   4   70.24    2.02
   2   8   5    5.90    0.58
   2   8   5    6.12    0.56
   2   8   5    6.17    0.53
   2   8   5    6.37    0.59
   2   8   5    5.61    0.53
   2   8   6    1.37    0.25
   2   8   6    0.97    0.21
   2   8   6    1.07    0.25
   2   8   7   20.25    0.87
   2   8   7   19.37    0.76
   2   8   7   19.66    0.81
  -2  -9   5    2.77    0.22
   2   9  -5    3.50    0.31
   2   9  -5    3.06    0.29
  -2  -9   5    3.14    0.26
   2   9  -5    3.31    0.32
   2   9  -5    3.26    0.34
   2   9  -4    7.84    0.55
   2   9  -4    7.46    0.54
  -2  -9   4    7.44    0.38
   2   9  -4    7.13    0.52
  -2  -9   4    6.66    0.47
   2   9  -4    7.81    0.58
   2   9  -3   85.46    2.19
   2   9  -3   82.67    2.11
  -2  -9   3   76.30    2.00
   2   9  -3   82.43    2.18
   2   9  -3   81.70    2.16
  -2  -9   2  222.48    4.25
   2   9  -2  235.85    4.44
   2   9  -2  228.61    4.29
   2   9  -1   69.36    2.10
   2   9  -1   66.80    1.89
  -2  -9   1   64.19    1.94
   2   9  -1   66.84    1.86
   2   9  -1   72.44    1.94
   2   9   0    0.45    0.22
  -2  -9   0    0.86    0.24
   2   9   0    0.53    0.18
   2   9   0    0.70    0.21
   2   9   0    0.66    0.19
   2   9   0    0.50    0.16
   2   9   1   11.76    0.69
   2   9   1   12.48    0.82
   2   9   1   11.74    0.72
  -2  -9  -1   12.29    0.77
   2   9   2   85.23    1.96
   2   9   2   84.90    2.28
   2   9   2   84.02    2.25
  -2  -9  -2   84.47    2.02
   2   9   3   50.53    1.66
   2   9   3   50.82    1.71
   2   9   4    9.54    0.67
   2   9   4    8.29    0.68
   2   9   4    9.67    0.66
   2   9   5    1.15    0.23
   2   9   5    1.08    0.22
   2   9   6   25.44    0.87
   2   9   6   25.46    0.88
   2  10  -4    5.27    0.36
   2  10  -4    4.44    0.31
   2  10  -4    5.11    0.38
   2  10  -3  109.17    2.16
   2  10  -3  111.54    2.29
   2  10  -3  116.25    2.16
   2  10  -3  112.31    2.29
   2  10  -2   77.86    1.80
   2  10  -2   79.70    1.76
   2  10  -2   73.40    1.79
   2  10  -2   74.03    1.91
  -2 -10   2   69.29    1.75
   2  10  -1    1.12    0.21
   2  10  -1    0.99    0.19
  -2 -10   1    0.81    0.20
   2  10  -1    1.06    0.24
   2  10  -1    0.90    0.19
   2  10   0   18.91    0.81
   2  10   0   19.76    0.97
  -2 -10   0   17.84    0.83
   2  10   1    3.37    0.32
  -2 -10  -1    2.62    0.31
   2  10   1    3.55    0.42
   2  10   1    3.17    0.33
   2  10   2  102.11    2.39
   2  10   3  178.50    3.34
   2  10   4    4.73    0.40
   2  10   5   25.26    0.81
   2  11  -1    5.12    0.38
   2  11   0   11.57    0.60
   2  11   1   58.62    1.48
   2  11   2  143.52    2.58
  -3   9   1   17.07    0.70
  -3   9   1   15.45    0.50
  -3   9   0  166.34    2.91
   3  -9   0  161.48    2.62
   3  -9   1  104.22    2.07
  -3   9  -1  104.98    2.27
  -3   9  -2   11.75    0.66
   3  -9   2   10.80    0.57
  -3   9  -2   10.02    0.53
   3  -9   2    9.07    0.43
  -3   9  -3    2.69    0.32
   3  -9   3    2.36    0.25
   3  -9   3    2.49    0.28
  -3   9  -3    2.41    0.28
  -3   9  -4    5.18    0.36
  -3   9  -4    6.01    0.44
   3  -9   4    5.74    0.40
  -3   9  -4    5.13    0.39
   3  -9   4    5.39    0.39
  -3   9  -5   65.11    1.48
   3  -9   5   62.06    1.37
  -3   9  -5   63.09    1.43
  -3   9  -5   63.09    1.42
   3  -9   5   63.08    1.43
  -3   8   3    8.47    0.49
  -3   8   3    8.56    0.43
  -3   8   2   23.35    0.94
  -3   8   2   23.60    0.83
  -3   8   2   21.60    0.81
  -3   8   1   55.97    1.63
  -3   8   1   52.95    1.40
  -3   8   1   55.35    1.43
  -3   8   0   77.15    1.77
  -3   8   0   75.39    1.74
  -3   8  -1   33.08    1.29
  -3   8  -1   31.49    1.00
  -3   8  -1   31.18    1.13
  -3   8  -1   31.68    0.99
   3  -8   1   30.44    0.89
   3  -8   2    0.54    0.19
  -3   8  -2    0.99    0.23
  -3   8  -2    0.68    0.15
  -3   8  -2    1.14    0.27
  -3   8  -2    0.66    0.17
  -3   8  -3    0.60    0.20
   3  -8   3    1.00    0.23
  -3   8  -3    0.69    0.20
  -3   8  -3    0.62    0.19
  -3   8  -4   81.02    2.08
   3  -8   4   77.43    1.97
   3  -8   4   78.48    1.69
   3  -8   4   83.03    2.05
  -3   8  -4   78.55    2.04
  -3   8  -4   77.53    2.01
  -3   8  -5   77.88    1.93
   3  -8   5   72.94    1.83
   3  -8   5   72.34    1.61
  -3   8  -5   75.24    1.88
  -3   8  -5   74.65    1.96
   3  -8   5   76.10    1.91
  -3   8  -6   74.39    1.73
   3  -8   6   67.69    1.46
   3  -8   6   70.78    1.66
   3  -8   6   67.19    1.41
  -3   8  -6   70.32    1.64
  -3   8  -6   73.77    1.84
   3  -8   6   75.96    1.76
  -3   8  -7   20.62    0.70
   3  -8   7   19.98    0.69
  -3   8  -7   21.00    0.81
   3  -8   7   19.19    0.70
  -3   7   4   18.21    0.73
  -3   7   4   19.35    0.78
  -3   7   4   18.95    0.79
  -3   7   3    0.92    0.19
  -3   7   3    1.10    0.22
  -3   7   3    0.97    0.22
  -3   7   3    1.20    0.24
  -3   7   2   34.21    1.30
  -3   7   2   31.57    1.09
  -3   7   2   33.70    1.18
  -3   7   2   34.75    1.28
  -3   7   1   11.11    0.75
  -3   7   1   12.06    0.68
  -3   7   1   10.08    0.56
  -3   7   1   10.85    0.71
  -3   7   0    4.81    0.50
  -3   7   0    4.73    0.42
  -3   7   0    4.83    0.44
  -3   7   0    4.64    0.45
  -3   7   0    5.13    0.48
  -3   7  -1   20.05    1.02
  -3   7  -1   19.45    0.82
  -3   7  -1   19.48    0.82
   3  -7   1   19.92    0.80
  -3   7  -1   19.32    0.98
  -3   7  -1   21.06    1.03
  -3   7  -1   19.26    0.90
   3  -7   2   41.32    1.26
  -3   7  -2   40.94    1.17
  -3   7  -2   40.74    1.52
  -3   7  -2   42.01    1.50
  -3   7  -2   42.07    1.54
  -3   7  -2   40.47    1.34
  -3   7  -2   40.44    1.30
  -3   7  -3  101.07    2.49
   3  -7   3   97.54    2.22
   3  -7   3  100.15    2.50
  -3   7  -3  104.40    2.52
  -3   7  -3  102.38    2.59
  -3   7  -3  100.77    2.44
  -3   7  -3  101.57    2.60
  -3   7  -3  101.31    2.47
  -3   7  -3   96.88    2.06
   3  -7   4   50.86    1.54
   3  -7   4   54.01    1.72
  -3   7  -4   53.91    1.73
  -3   7  -4   50.92    1.74
  -3   7  -4   52.61    1.76
  -3   7  -4   54.40    1.77
  -3   7  -4   53.24    1.74
   3  -7   5   47.10    1.47
  -3   7  -5   50.93    1.68
  -3   7  -5   47.81    1.57
  -3   7  -5   49.46    1.61
  -3   7  -5   48.62    1.71
  -3   7  -5   47.76    1.67
   3  -7   5   44.96    1.53
   3  -7   5   46.81    1.61
   3  -7   6   49.23    1.53
  -3   7  -6   50.31    1.60
  -3   7  -6   49.14    1.49
  -3   7  -6   52.58    1.73
  -3   7  -6   48.28    1.64
   3  -7   6   48.22    1.45
   3  -7   6   49.59    1.57
  -3   7  -6   49.91    1.53
   3  -7   7   15.49    0.74
  -3   7  -7   15.80    0.77
  -3   7  -7   16.31    0.75
  -3   7  -7   14.79    0.66
   3  -7   7   14.27    0.70
  -3   7  -7   15.43    0.83
   3  -7   7   15.12    0.75
   3  -7   8    6.34    0.39
   3  -7   8    6.28    0.39
  -3   7  -8    6.82    0.42
  -3   7  -8    6.16    0.37
  -3   7  -8    6.51    0.45
   3  -7   8    6.60    0.39
  -3   6   5   12.66    0.66
  -3   6   5   13.14    0.66
  -3   6   4    3.90    0.41
  -3   6   4    3.24    0.38
  -3   6   4    4.17    0.43
  -3   6   3   34.93    1.34
  -3   6   3   32.06    1.25
  -3   6   3   33.03    1.23
  -3   6   3   34.77    1.35
  -3   6   2    9.12    0.68
  -3   6   2    8.78    0.61
  -3   6   2    8.19    0.59
  -3   6   2    9.48    0.70
  -3   6   1   17.86    0.81
  -3   6   1   18.28    0.85
  -3   6   1   18.88    0.97
  -3   6   1   17.50    0.85
  -3   6   1   19.00    0.97
  -3   6   0   52.69    1.66
  -3   6   0   54.26    1.67
  -3   6   0   48.30    1.57
  -3   6   0   50.97    1.42
  -3   6   0   49.94    1.60
  -3   6  -1  281.80    4.43
  -3   6  -1  287.90    4.85
  -3   6  -1  284.86    4.97
  -3   6  -1  294.39    5.02
   3  -6   1  287.33    4.60
  -3   6  -1  287.41    4.52
  -3   6  -1  284.77    4.75
  -3   6  -2  137.05    2.93
  -3   6  -2  136.93    2.81
  -3   6  -2  142.95    2.50
  -3   6  -2  144.47    2.93
  -3   6  -2  143.47    3.16
  -3   6  -2  147.09    3.15
  -3   6  -2  147.75    2.89
   3  -6   2  139.17    2.82
  -3   6  -3  132.92    2.87
  -3   6  -3  146.56    3.09
  -3   6  -3  143.43    3.23
   3  -6   3  133.38    2.83
  -3   6  -3  139.46    3.13
  -3   6  -3  147.01    3.17
  -3   6  -3  137.60    2.97
  -3   6  -3  133.33    2.90
   3  -6   4    7.20    0.57
   3  -6   4    7.43    0.61
  -3   6  -4    7.68    0.66
  -3   6  -4    8.39    0.68
  -3   6  -4    9.11    0.69
  -3   6  -4    7.32    0.63
  -3   6  -4    7.06    0.62
  -3   6  -5   18.11    0.99
   3  -6   5   18.13    0.97
  -3   6  -5   18.17    0.97
  -3   6  -5   18.98    1.04
  -3   6  -5   19.34    0.81
  -3   6  -5   19.08    0.98
   3  -6   5   20.01    0.98
  -3   6  -5   19.45    1.06
  -3   6  -6   98.49    2.14
   3  -6   6   98.56    2.42
  -3   6  -6   98.18    2.58
   3  -6   6   98.06    2.43
  -3   6  -6   98.05    2.51
  -3   6  -6  100.84    2.36
   3  -6   6  102.64    2.52
  -3   6  -7   54.39    1.44
   3  -6   7   53.79    1.62
  -3   6  -7   50.09    1.63
  -3   6  -7   54.33    1.46
  -3   6  -7   57.00    1.80
   3  -6   7   55.90    1.67
  -3   6  -8    8.95    0.50
   3  -6   8    8.68    0.54
  -3   6  -8    9.49    0.59
   3  -6   8    8.95    0.58
  -3   6  -8    9.14    0.61
   3  -6   8    9.08    0.54
   3  -6   9   12.91    0.52
   3  -6   9   13.55    0.59
  -3   6  -9   13.06    0.55
   3  -6   9   12.68    0.47
  -3   6  -9   12.67    0.56
  -3   5   6    1.15    0.21
  -3   5   6    0.98    0.18
  -3   5   5   50.41    1.61
  -3   5   5   52.98    1.58
  -3   5   5   53.82    1.59
  -3   5   4  135.46    2.98
  -3   5   4  139.58    2.92
  -3   5   4  130.16    3.02
  -3   5   4  138.90    3.03
  -3   5   3   84.45    2.21
  -3   5   3   78.43    2.17
  -3   5   3   80.81    2.09
  -3   5   3   85.20    2.28
  -3   5   2   20.73    0.99
  -3   5   2   21.18    0.94
  -3   5   2   18.45    0.91
  -3   5   2   21.56    1.04
  -3   5   1  108.32    2.45
  -3   5   1  107.70    2.28
  -3   5   1  113.04    2.29
  -3   5   1  110.24    2.40
  -3   5   1  105.16    2.22
   3  -5  -1  110.21    2.13
  -3   5   1  104.68    2.47
  -3   5   0  272.90    4.48
  -3   5   0  273.48    4.06
  -3   5   0  264.82    4.19
  -3   5   0  277.51    4.59
  -3   5   0  282.86    4.66
  -3   5   0  273.81    4.06
  -3   5   0  274.90    4.06
  -3   5   0  266.63    4.50
  -3   5  -1  182.91    3.59
  -3   5  -1  183.48    3.30
  -3   5  -1  183.32    2.94
  -3   5  -1  189.25    3.14
  -3   5  -1  194.03    3.59
  -3   5  -1  183.94    3.17
  -3   5  -1  194.33    3.60
  -3   5  -2   43.88    1.30
  -3   5  -2   45.53    1.35
   3  -5   2   44.18    1.35
  -3   5  -2   44.91    1.58
  -3   5  -2   45.38    1.50
  -3   5  -2   45.44    1.48
  -3   5  -2   47.50    1.35
  -3   5  -2   42.38    1.29
  -3   5  -3   79.23    2.18
  -3   5  -3   79.89    2.12
   3  -5   3   83.32    2.01
  -3   5  -3   82.35    2.02
  -3   5  -3   80.40    2.10
  -3   5  -3   85.68    2.13
  -3   5  -4   60.85    1.43
   3  -5   4   60.63    1.74
   3  -5   4   63.17    1.79
  -3   5  -4   59.18    1.83
  -3   5  -4   60.22    1.81
  -3   5  -4   60.91    1.80
  -3   5  -4   65.24    1.91
  -3   5  -4   61.87    1.79
  -3   5  -5   29.47    1.04
   3  -5   5   28.18    1.18
   3  -5   5   27.95    1.17
  -3   5  -5   27.44    1.16
  -3   5  -5   29.00    1.18
  -3   5  -5   27.75    1.17
  -3   5  -5   27.90    1.22
  -3   5  -5   28.26    1.23
  -3   5  -6  256.66    4.37
   3  -5   6  268.70    4.72
  -3   5  -6  262.96    4.44
  -3   5  -6  266.20    4.79
  -3   5  -6  273.83    4.53
   3  -5   6  255.73    4.62
   3  -5   6  252.70    4.21
   3  -5   6  266.13    4.67
  -3   5  -6  249.80    4.69
   3  -5   7   75.65    2.09
   3  -5   7   73.89    2.02
  -3   5  -7   74.63    2.10
  -3   5  -7   74.07    1.75
  -3   5  -7   71.97    1.77
  -3   5  -7   71.72    1.88
  -3   5  -7   73.15    2.09
   3  -5   7   70.86    1.71
   3  -5   7   77.77    2.06
   3  -5   8    1.11    0.23
  -3   5  -8    1.61    0.29
   3  -5   8    1.00    0.23
   3  -5   8    1.16    0.23
  -3   5  -8    1.33    0.26
  -3   5  -8    1.62    0.26
   3  -5   8    1.27    0.23
  -3   5  -9   20.23    0.78
   3  -5   9   21.15    0.86
  -3   5  -9   20.98    0.80
   3  -5   9   20.00    0.77
  -3   5  -9   21.70    0.83
   3  -5   9   22.19    0.81
   3  -5   9   20.87    0.72
   3  -5  10   60.27    1.19
  -3   4   7    3.69    0.31
  -3   4   7    3.96    0.29
  -3   4   6  111.66    2.51
  -3   4   6  117.23    2.41
  -3   4   5  141.36    3.17
  -3   4   5  146.77    3.07
  -3   4   5  149.21    3.10
  -3   4   4  161.93    3.35
  -3   4   4  160.45    3.29
  -3   4   4  162.81    3.37
  -3   4   4  159.10    3.47
  -3   4   3   11.88    0.74
  -3   4   3   11.38    0.76
  -3   4   3   11.37    0.70
  -3   4   3   11.73    0.75
  -3   4   2   12.72    0.71
  -3   4   2   12.27    0.65
  -3   4   2   11.75    0.69
  -3   4   2   13.04    0.65
  -3   4   2   12.37    0.73
  -3   4   1   66.26    1.60
  -3   4   1   65.57    1.65
  -3   4   1   63.39    1.60
  -3   4   1   65.87    1.57
  -3   4   1   63.03    1.50
  -3   4   1   63.14    1.68
  -3   4   0   71.74    1.45
  -3   4   0   74.10    1.67
  -3   4   0   75.72    1.79
   3  -4   0   72.36    1.61
  -3   4   0   74.85    1.76
  -3   4   0   77.71    1.83
  -3   4   0   73.35    1.46
  -3   4   0   73.25    1.46
  -3   4   0   71.92    1.49
   3  -4   1    8.86    0.41
  -3   4  -1    9.64    0.60
   3  -4   1    9.17    0.45
  -3   4  -1    8.46    0.45
  -3   4  -1   10.27    0.61
  -3   4  -1    9.49    0.62
  -3   4  -1    8.81    0.49
  -3   4  -1    8.53    0.55
  -3   4  -1    8.72    0.46
  -3   4  -2   14.10    0.73
   3  -4   2   12.95    0.51
  -3   4  -2   13.11    0.62
  -3   4  -2   13.55    0.75
  -3   4  -2   14.20    0.75
  -3   4  -2   13.63    0.59
  -3   4  -2   13.64    0.70
  -3   4  -2   14.59    0.64
  -3   4  -2   12.03    0.49
  -3   4  -2   13.23    0.61
  -3   4  -3   13.83    0.68
  -3   4  -3   12.98    0.53
   3  -4   3   13.56    0.68
   3  -4   3   12.70    0.50
  -3   4  -3   13.55    0.71
  -3   4  -3   13.62    0.72
  -3   4  -3   12.86    0.74
  -3   4  -3   13.43    0.70
  -3   4  -4  329.37    4.66
   3  -4   4  333.63    4.48
   3  -4   4  318.63    4.99
   3  -4   4  288.48    4.88
  -3   4  -4  299.72    5.09
  -3   4  -4  302.77    5.05
  -3   4  -4  294.41    4.96
  -3   4  -4  316.80    5.01
  -3   4  -4  314.16    4.97
   3  -4   5  293.89    4.26
   3  -4   5  269.12    4.73
   3  -4   5  293.72    4.75
  -3   4  -5  287.94    4.52
  -3   4  -5  284.00    4.88
  -3   4  -5  286.82    4.75
  -3   4  -5  293.98    4.74
  -3   4  -5  274.14    4.71
   3  -4   5  287.42    4.29
  -3   4  -5  288.55    4.72
  -3   4  -6   38.87    1.32
   3  -4   6   40.77    1.15
   3  -4   6   41.21    1.41
   3  -4   6   40.57    1.19
  -3   4  -6   36.27    1.40
   3  -4   6   41.73    1.46
  -3   4  -6   42.07    1.34
  -3   4  -6   42.70    1.33
  -3   4  -6   39.35    1.32
  -3   4  -6   38.11    1.39
   3  -4   6   40.98    1.29
   3  -4   6   39.93    1.40
  -3   4  -7   39.22    1.37
   3  -4   7   39.63    1.47
  -3   4  -7   38.72    1.44
   3  -4   7   38.97    1.40
  -3   4  -7   37.62    1.16
   3  -4   7   40.38    1.14
  -3   4  -7   38.42    1.40
  -3   4  -7   38.32    1.18
   3  -4   7   38.62    1.36
   3  -4   7   41.27    1.32
   3  -4   7   41.19    1.41
   3  -4   8    1.14    0.23
   3  -4   8    0.72    0.23
  -3   4  -8    0.79    0.22
   3  -4   8    0.92    0.18
   3  -4   8    0.75    0.21
  -3   4  -8    0.74    0.20
   3  -4   8    0.71    0.20
  -3   4  -9   53.64    1.51
   3  -4   9   54.36    1.57
   3  -4   9   54.48    1.45
  -3   4  -9   55.30    1.50
   3  -4   9   53.44    1.57
   3  -4   9   52.26    1.30
  -3   4  -9   51.60    1.35
   3  -4  10   20.76    0.75
   3  -4  10   20.42    0.80
   3  -4  10   20.68    0.62
  -3   4 -10   21.59    0.75
  -3   4 -10   21.14    0.67
  -3   3   7   53.67    1.42
  -3   3   7   53.83    1.30
  -3   3   6   60.65    1.64
  -3   3   6   56.62    1.39
  -3   3   6   59.72    1.78
   3  -3  -5  180.15    3.20
  -3   3   5  171.64    3.64
  -3   3   5  178.79    3.46
  -3   3   5  168.30    3.09
  -3   3   5  177.28    3.52
  -3   3   4   31.17    1.32
  -3   3   4   32.94    1.25
  -3   3   4   31.87    1.26
  -3   3   3    7.43    0.54
  -3   3   3    6.61    0.55
   3  -3  -3    7.27    0.49
  -3   3   3    8.05    0.54
  -3   3   3    7.87    0.57
  -3   3   2   30.66    1.02
  -3   3   2   27.98    1.04
   3  -3  -2   30.56    0.90
  -3   3   2   28.77    0.97
  -3   3   2   29.49    0.97
  -3   3   2   30.04    1.05
  -3   3   1   25.84    0.86
  -3   3   1   28.08    0.74
  -3   3   1   27.82    0.94
  -3   3   1   26.78    0.76
  -3   3   1   25.71    0.85
  -3   3   1   27.08    0.99
  -3   3   1   25.52    0.91
   3  -3   0  107.35    1.87
  -3   3   0  110.23    1.81
  -3   3   0  105.05    1.79
   3  -3   0  109.75    2.10
  -3   3   0  107.66    2.07
  -3   3   0  112.29    1.86
  -3   3   0  109.42    1.87
  -3   3   0  113.15    2.32
  -3   3   0  115.99    2.19
   3  -3   0  108.22    1.71
   3  -3   1  106.61    1.91
   3  -3   1  108.95    1.91
  -3   3  -1  107.89    1.87
  -3   3  -1  109.25    1.79
   3  -3   1  112.02    1.97
  -3   3  -1  109.87    1.80
  -3   3  -1  110.48    2.24
  -3   3  -1  106.62    1.87
  -3   3  -1  111.06    2.12
  -3   3  -1  108.95    1.76
   3  -3   1  110.39    1.68
   3  -3   1  109.16    2.06
  -3   3  -1  107.52    2.14
   3  -3   2  133.01    2.27
  -3   3  -2  134.30    2.24
   3  -3   2  139.49    2.34
  -3   3  -2  144.33    2.56
   3  -3   2  136.66    2.40
   3  -3   2  138.77    2.00
   3  -3   2  136.23    2.23
  -3   3  -2  137.55    2.34
  -3   3  -2  137.23    2.59
   3  -3   2  123.06    2.13
  -3   3  -2  130.93    2.08
  -3   3  -2  137.04    2.44
  -3   3  -2  132.07    2.05
  -3   3  -2  133.59    2.26
  -3   3  -3  483.12    6.42
   3  -3   3  492.59    6.55
  -3   3  -3  458.69    6.53
   3  -3   3  491.92    6.06
  -3   3  -3  473.27    6.73
   3  -3   3  457.64    5.94
  -3   3  -3  469.50    6.09
   3  -3   3  471.91    6.28
  -3   3  -3  446.62    6.53
  -3   3  -3  482.20    6.66
  -3   3  -4  156.49    2.77
  -3   3  -4  166.67    2.94
  -3   3  -4  169.19    2.80
  -3   3  -4  172.11    2.79
   3  -3   4  166.24    2.71
   3  -3   4  169.39    2.90
   3  -3   4  162.64    2.46
  -3   3  -4  154.65    2.95
   3  -3   4  169.89    2.97
  -3   3  -4  166.69    2.92
  -3   3  -4  167.86    2.93
  -3   3  -4  161.71    3.02
  -3   3  -5   59.25    1.16
  -3   3  -5   55.47    1.43
   3  -3   5   55.91    1.49
  -3   3  -5   50.68    1.53
  -3   3  -5   51.24    1.46
  -3   3  -5   60.07    1.51
   3  -3   5   56.16    1.38
   3  -3   5   56.22    1.56
  -3   3  -5   57.12    1.47
  -3   3  -5   54.59    1.50
   3  -3   5   55.02    1.35
   3  -3   5   55.65    1.27
   3  -3   5   56.54    1.53
  -3   3  -6    2.87    0.37
   3  -3   6    3.14    0.33
   3  -3   6    3.40    0.39
   3  -3   6    3.30    0.37
  -3   3  -6    2.85    0.34
  -3   3  -6    2.95    0.32
  -3   3  -6    3.45    0.33
  -3   3  -6    3.21    0.32
   3  -3   6    2.98    0.31
  -3   3  -6    3.37    0.37
   3  -3   6    3.61    0.37
   3  -3   6    3.37    0.34
   3  -3   6    3.47    0.38
  -3   3  -7    6.27    0.54
   3  -3   7    6.91    0.51
   3  -3   7    6.88    0.58
   3  -3   7    6.78    0.50
   3  -3   7    7.06    0.55
  -3   3  -7    6.58    0.56
  -3   3  -7    6.92    0.46
  -3   3  -7    6.88    0.42
  -3   3  -7    6.69    0.52
   3  -3   7    6.68    0.56
   3  -3   7    6.43    0.52
   3  -3   7    7.40    0.55
  -3   3  -8   78.51    2.09
   3  -3   8   78.73    2.14
   3  -3   8   79.37    2.01
  -3   3  -8   78.12    2.07
   3  -3   8   75.01    1.90
   3  -3   8   76.04    2.15
   3  -3   8   79.91    1.93
   3  -3   8   78.49    2.10
  -3   3  -9   29.39    1.14
   3  -3   9   29.30    1.14
   3  -3   9   26.62    1.00
   3  -3   9   27.90    1.16
  -3   3  -9   29.95    1.10
   3  -3   9   26.81    0.90
  -3   3 -10   40.76    1.19
   3  -3  10   38.37    1.12
   3  -3  10   38.68    0.96
  -3   3 -10   38.82    1.05
   3  -3  10   39.35    1.28
   3  -3  10   36.68    1.03
   3  -2  -7   20.46    0.77
  -3   2   7   20.99    0.88
  -3   2   7   20.17    0.76
  -3   2   7   20.81    0.79
   3  -2  -6   26.95    0.94
  -3   2   6   29.47    1.23
  -3   2   6   27.88    1.05
  -3   2   6   27.14    1.06
  -3   2   5   30.28    1.29
   3  -2  -5   30.00    1.06
  -3   2   5   32.04    1.14
  -3   2   5   30.07    1.15
  -3   2   5   28.79    1.13
  -3   2   4    3.71    0.43
   3  -2  -4    3.29    0.34
  -3   2   4    3.83    0.39
  -3   2   4    3.69    0.37
  -3   2   4    3.08    0.37
  -3   2   3   11.34    0.63
  -3   2   3   14.78    0.71
   3  -2  -3   12.91    0.58
  -3   2   3   14.85    0.66
  -3   2   3   11.43    0.60
  -3   2   3   12.03    0.64
  -3   2   3   11.56    0.69
  -3   2   2  473.40    6.41
  -3   2   2  475.30    6.50
  -3   2   2  449.88    6.62
  -3   2   2  461.99    6.38
  -3   2   2  468.74    6.44
  -3   2   2  480.65    6.53
   3  -2  -2  474.60    6.35
  -3   2   1  110.68    2.10
   3  -2  -1  106.88    1.86
  -3   2   1  113.67    1.97
  -3   2   1  107.95    1.97
   3  -2  -1  110.32    1.95
  -3   2   1  104.99    1.72
   3  -2  -1  111.06    1.99
   3  -2  -1  109.76    2.09
   3  -2  -1  110.67    1.88
  -3   2   1  109.92    2.03
  -3   2   1  117.54    2.18
   3  -2   0  398.77    5.39
  -3   2   0  406.05    5.36
  -3   2   0  402.35    5.37
   3  -2   0  407.17    5.37
   3  -2   0  395.79    5.24
  -3   2   0  394.26    5.64
  -3   2   0  392.01    5.26
   3  -2   0  401.77    5.53
  -3   2   0  396.42    5.35
  -3   2   0  407.05    5.40
   3  -2   1  247.65    3.51
  -3   2  -1  244.75    3.46
  -3   2  -1  235.18    3.37
  -3   2  -1  241.09    3.42
   3  -2   1  243.54    3.32
   3  -2   1  248.19    3.60
  -3   2  -1  233.29    3.59
  -3   2  -1  239.21    3.40
  -3   2  -1  238.71    3.68
  -3   2  -2  256.47    3.84
   3  -2   2  256.22    3.72
   3  -2   2  262.03    3.73
  -3   2  -2  251.02    3.58
  -3   2  -2  267.89    3.67
   3  -2   2  258.17    3.53
  -3   2  -2  250.67    3.55
  -3   2  -2  253.16    3.87
  -3   2  -2  255.37    3.67
   3  -2   2  267.15    3.69
  -3   2  -2  255.61    3.75
  -3   2  -2  260.85    3.71
   3  -2   2  262.98    3.78
   3  -2   3   20.99    0.69
   3  -2   3   23.49    0.75
  -3   2  -3   20.67    0.68
  -3   2  -3   22.83    0.73
  -3   2  -3   23.95    0.79
   3  -2   3   21.42    0.62
   3  -2   3   22.80    0.62
  -3   2  -3   20.94    0.77
  -3   2  -3   22.35    0.71
  -3   2  -3   22.16    0.72
   3  -2   3   22.71    0.69
  -3   2  -4    1.84    0.21
   3  -2   4    2.05    0.24
   3  -2   4    2.35    0.23
  -3   2  -4    2.84    0.28
  -3   2  -4    2.51    0.23
   3  -2   4    2.13    0.23
   3  -2   4    2.43    0.22
  -3   2  -4    2.25    0.27
   3  -2   4    2.48    0.23
  -3   2  -4    2.24    0.22
   3  -2   4    3.32    0.29
  -3   2  -4    2.04    0.25
  -3   2  -4    2.88    0.26
  -3   2  -4    2.11    0.24
  -3   2  -5   32.24    1.02
   3  -2   5   33.25    1.02
  -3   2  -5   31.69    0.94
  -3   2  -5   30.44    1.08
  -3   2  -5   31.78    1.03
  -3   2  -5   34.92    1.00
  -3   2  -5   35.53    0.82
   3  -2   5   34.35    1.08
  -3   2  -5   35.04    0.98
   3  -2   5   35.30    1.03
   3  -2   5   36.08    1.10
  -3   2  -6   62.25    1.66
   3  -2   6   63.73    1.64
  -3   2  -6   64.27    1.37
   3  -2   6   66.47    1.64
   3  -2   6   64.77    1.62
  -3   2  -6   62.41    1.51
  -3   2  -6   68.45    1.46
  -3   2  -6   63.80    1.41
  -3   2  -6   60.00    1.51
  -3   2  -6   59.45    1.69
   3  -2   6   63.64    1.67
   3  -2   6   62.86    1.64
   3  -2   6   64.22    1.61
   3  -2   6   61.59    1.63
  -3   2  -7  194.47    3.63
   3  -2   7  186.30    3.52
  -3   2  -7  182.81    3.18
  -3   2  -7  178.10    3.18
  -3   2  -7  189.21    3.62
   3  -2   7  195.07    3.48
  -3   2  -7  193.11    3.14
   3  -2   7  189.77    3.50
   3  -2   7  188.97    3.59
   3  -2   7  192.00    3.63
   3  -2   7  197.43    3.59
   3  -2   7  196.61    3.46
  -3   2  -8   37.85    1.42
  -3   2  -8   37.92    1.19
   3  -2   8   36.85    1.36
   3  -2   8   39.08    1.31
  -3   2  -8   36.87    1.34
   3  -2   8   42.16    1.51
   3  -2   8   38.82    1.37
   3  -2   8   39.70    1.50
   3  -2   8   35.35    1.19
   3  -2   9   35.52    1.26
   3  -2   9   34.20    1.15
  -3   2  -9   34.78    1.21
  -3   2  -9   33.28    1.08
   3  -2   9   32.78    1.24
  -3   2  -9   34.33    1.31
   3  -2   9   33.73    1.00
   3  -2   9   34.89    1.38
   3  -2  10   70.37    1.76
  -3   2 -10   73.29    1.78
   3  -2  10   69.43    1.61
  -3   2 -10   69.43    1.55
   3  -2  10   67.08    1.68
   3  -2  10   70.56    1.92
   3  -2  10   67.33    1.86
   3  -2  11   45.08    1.08
  -3   2 -11   45.10    1.08
   3  -2  11   44.28    1.19
  -3   1   8    9.55    0.42
  -3   1   8   10.06    0.47
   3  -1  -7    7.40    0.47
  -3   1   7    8.20    0.55
  -3   1   7    7.24    0.43
  -3   1   7    7.99    0.55
  -3   1   6   60.37    1.80
   3  -1  -6   60.59    1.62
  -3   1   6   59.06    1.53
  -3   1   6   62.36    1.78
  -3   1   5   44.55    1.21
  -3   1   5   47.61    1.60
   3  -1  -5   47.86    1.47
  -3   1   5   48.11    1.52
  -3   1   5   46.96    1.37
  -3   1   4  226.12    4.13
   3  -1  -4  240.95    3.97
  -3   1   4  237.21    3.98
  -3   1   4  232.96    3.67
  -3   1   4  228.30    3.78
  -3   1   4  225.78    3.98
  -3   1   3   81.66    1.94
   3  -1  -3   85.65    1.83
  -3   1   3   86.53    1.85
  -3   1   3   81.96    1.78
  -3   1   3   81.71    1.73
  -3   1   3   78.81    1.82
  -3   1   3   80.00    1.81
  -3   1   2  136.86    2.41
  -3   1   2  135.91    2.05
   3  -1  -2  136.32    2.47
   3  -1  -2  134.46    2.28
  -3   1   2  141.16    2.52
  -3   1   2  140.99    2.20
   3  -1  -2  141.14    2.47
   3  -1  -2  136.97    2.32
  -3   1   2  137.19    2.46
  -3   1   1  276.51    3.98
  -3   1   1  277.30    4.04
  -3   1   1  268.64    3.94
   3  -1  -1  277.54    4.05
   3  -1  -1  276.00    3.96
  -3   1   1  279.07    4.07
  -3   1   1  267.14    4.03
   3  -1  -1  280.73    4.01
  -3   1   1  278.38    4.08
   3  -1  -1  285.60    4.02
  -3   1   1  270.75    3.76
  -3   1   0    2.55    0.23
   3  -1   0    2.67    0.22
  -3   1   0    4.17    0.27
  -3   1   0    2.60    0.22
  -3   1   0    2.36    0.19
   3  -1   0    2.42    0.20
   3  -1   0    2.24    0.21
  -3   1   0    2.53    0.22
   3  -1   0    2.57    0.21
  -3   1   0    4.55    0.31
  -3   1  -1   95.85    1.64
  -3   1  -1   99.72    1.65
  -3   1  -1   93.50    1.73
   3  -1   1   99.48    1.69
   3  -1   1   96.10    1.72
  -3   1  -1   95.62    1.67
   3  -1   1   99.23    1.69
   3  -1   1   97.37    1.62
  -3   1  -1   98.17    1.70
   3  -1   2    8.52    0.38
  -3   1  -2    8.26    0.36
   3  -1   2    7.78    0.38
   3  -1   2    8.36    0.38
  -3   1  -2    7.73    0.39
  -3   1  -2    8.23    0.39
  -3   1  -2    8.29    0.37
  -3   1  -2    8.38    0.39
   3  -1   2    8.22    0.34
   3  -1   3    0.87    0.13
  -3   1  -3    0.68    0.13
   3  -1   3    0.89    0.14
  -3   1  -3    1.69    0.17
   3  -1   3    0.99    0.14
  -3   1  -3    0.85    0.12
   3  -1   3    0.61    0.11
  -3   1  -3    2.07    0.21
   3  -1   3    0.71    0.12
  -3   1  -3    0.66    0.14
  -3   1  -3    0.67    0.12
  -3   1  -3    1.06    0.14
  -3   1  -4  123.36    2.19
   3  -1   4  124.29    2.11
  -3   1  -4  117.41    2.08
   3  -1   4  129.07    2.20
  -3   1  -4  118.38    2.06
   3  -1   4  130.96    2.17
  -3   1  -4  125.40    2.12
   3  -1   4  127.29    2.03
   3  -1   4  122.24    2.07
   3  -1   4  124.28    2.13
   3  -1   4  129.79    2.15
  -3   1  -4  123.19    2.21
  -3   1  -4  114.89    2.20
  -3   1  -4  129.12    2.02
  -3   1  -4  136.01    2.00
  -3   1  -4  115.83    2.15
  -3   1  -5  267.30    4.16
  -3   1  -5  268.46    4.15
   3  -1   5  279.52    4.13
  -3   1  -5  277.72    4.14
   3  -1   5  273.25    4.18
   3  -1   5  282.02    4.14
   3  -1   5  279.34    4.06
  -3   1  -5  268.31    4.26
  -3   1  -5  263.24    4.07
  -3   1  -5  281.42    3.80
   3  -1   6  381.25    5.87
   3  -1   6  404.49    5.70
   3  -1   6  404.67    5.89
  -3   1  -6  379.37    5.56
  -3   1  -6  403.17    5.94
   3  -1   6  402.19    5.81
  -3   1  -6  385.04    5.93
   3  -1   6  400.03    5.82
   3  -1   6  402.13    5.76
  -3   1  -7   47.23    1.52
   3  -1   7   46.57    1.35
   3  -1   7   46.08    1.49
   3  -1   7   46.94    1.51
  -3   1  -7   49.47    1.21
  -3   1  -7   45.14    1.47
   3  -1   7   46.74    1.42
   3  -1   7   45.92    1.47
   3  -1   7   46.64    1.37
   3  -1   7   50.73    1.53
   3  -1   8    1.31    0.22
  -3   1  -8    0.69    0.20
  -3   1  -8    1.06    0.23
   3  -1   8    0.92    0.22
  -3   1  -8    1.27    0.27
   3  -1   8    0.87    0.23
   3  -1   8    0.94    0.25
   3  -1   8    1.02    0.21
   3  -1   9   19.63    1.00
  -3   1  -9   19.46    0.89
   3  -1   9   19.42    0.89
  -3   1  -9   18.90    0.87
  -3   1  -9   21.70    1.03
   3  -1   9   21.00    0.85
   3  -1   9   19.36    1.03
   3  -1  10   92.63    2.17
  -3   1 -10   94.37    2.13
  -3   1 -10   84.10    1.85
   3  -1  10   87.07    1.80
  -3   1 -10   86.81    1.82
   3  -1  10   87.66    2.10
   3  -1  10   89.42    2.25
   3  -1  10   93.51    2.29
   3  -1  11   16.96    0.67
  -3   1 -11   17.11    0.65
   3  -1  11   15.58    0.64
   3  -1  11   16.01    0.70
  -3   0   8    9.28    0.40
   3   0  -8    9.02    0.42
   3   0  -8    9.62    0.51
  -3   0   8   10.19    0.54
  -3   0   7    9.93    0.50
  -3   0   7   11.08    0.63
   3   0  -7   10.58    0.62
  -3   0   7   11.28    0.70
  -3   0   6   75.26    1.77
  -3   0   6   80.64    2.07
   3   0  -6   76.76    2.01
  -3   0   6   78.80    1.71
  -3   0   6   80.32    2.16
  -3   0   5  259.06    4.52
   3   0  -5  258.65    4.42
  -3   0   5  258.49    4.48
  -3   0   5  247.28    3.99
   3   0  -4  180.03    3.28
  -3   0   4  175.09    3.27
  -3   0   4  178.96    2.98
  -3   0   4  169.74    2.88
  -3   0   4  166.37    3.39
   3   0  -3    2.29    0.24
   3   0  -3    1.73    0.25
  -3   0   3    1.94    0.28
  -3   0   3    1.85    0.22
  -3   0   3    2.25    0.27
  -3   0   3    1.92    0.25
  -3   0   3    2.37    0.28
  -3   0   2    9.79    0.51
   3   0  -2    9.63    0.51
   3   0  -2   10.13    0.51
  -3   0   2    9.16    0.52
   3   0  -2    8.90    0.49
  -3   0   2    9.54    0.52
   3   0  -2    9.16    0.47
  -3   0   2   10.06    0.51
  -3   0   1   12.46    0.52
  -3   0   1   12.32    0.53
  -3   0   1   12.17    0.45
   3   0  -1   12.21    0.53
  -3   0   1   12.55    0.53
  -3   0   1   12.64    0.55
   3   0  -1   12.16    0.53
  -3   0   1   11.57    0.52
   3   0  -1   12.65    0.52
   3   0  -1   12.67    0.53
  -3   0   1   12.86    0.53
  -3   0   0  206.80    3.15
  -3   0   0  216.40    3.16
  -3   0   0  211.95    3.05
   3   0   0  212.07    3.16
   3   0   0  220.02    3.16
   3   0   0  221.74    3.19
  -3   0   0  214.31    3.14
  -3   0   0  214.30    3.19
   3   0   0  213.45    3.14
  -3   0   0  227.18    3.22
  -3   0  -1  139.55    2.20
   3   0   1  143.01    2.20
   3   0   1  140.00    2.16
   3   0   1  145.12    2.17
  -3   0  -1  139.76    2.19
  -3   0  -1  141.31    2.17
  -3   0  -1  136.83    2.14
  -3   0  -2    5.94    0.30
   3   0   2    6.23    0.30
   3   0   2    6.65    0.29
  -3   0  -2    6.19    0.32
   3   0   2    5.97    0.30
   3   0   3  247.45    3.39
  -3   0  -3  244.37    3.51
   3   0   3  243.07    3.47
   3   0   3  245.52    3.44
  -3   0  -3  243.05    3.46
   3   0   3  240.40    3.41
   3   0   3  254.50    3.43
  -3   0  -3  232.71    3.49
  -3   0  -3  236.16    3.38
   3   0   4  545.85    6.74
   3   0   4  554.48    6.88
  -3   0  -4  537.51    6.90
   3   0   4  538.97    6.83
  -3   0  -4  517.05    6.93
   3   0   4  520.89    6.86
  -3   0  -4  524.56    6.72
  -3   0  -4  516.49    6.89
   3   0   4  506.38    6.70
  -3   0  -4  531.61    6.94
   3   0   4  509.03    6.85
   3   0   4  509.89    6.24
   3   0   5  124.24    2.00
   3   0   5  121.30    2.10
   3   0   5  113.57    1.85
  -3   0  -5  122.48    2.22
   3   0   5  120.86    2.24
   3   0   5  115.35    2.06
   3   0   5  115.49    1.93
  -3   0  -5  117.70    2.27
  -3   0  -5  118.12    1.97
  -3   0  -5  120.50    2.14
   3   0   6  114.17    2.02
   3   0   6  114.11    2.18
   3   0   6  112.69    2.07
  -3   0  -6  113.88    2.36
   3   0   6  116.35    2.39
   3   0   6  117.60    2.34
   3   0   6  107.19    2.10
  -3   0  -6  113.43    2.10
   3   0   6  114.76    2.31
   3   0   6  115.16    2.28
  -3   0  -7   19.80    0.69
  -3   0  -7   19.46    0.93
   3   0   7   18.63    0.90
   3   0   7   18.30    0.92
   3   0   7   19.28    0.77
  -3   0  -7   18.74    0.89
   3   0   7   18.37    0.80
   3   0   7   17.48    0.75
   3   0   7   19.06    0.90
   3   0   7   17.81    0.87
   3   0   8    1.64    0.22
  -3   0  -8    1.05    0.24
   3   0   8    1.22    0.21
   3   0   8    1.10    0.22
   3   0   8    1.11    0.27
  -3   0  -8    1.19    0.27
   3   0   8    1.54    0.30
   3   0   9   65.93    1.95
  -3   0  -9   73.54    2.04
   3   0   9   66.56    1.66
  -3   0  -9   71.78    1.81
   3   0   9   69.09    2.02
   3   0   9   68.76    2.07
   3   0   9   71.05    2.08
   3   0  10   91.69    2.25
  -3   0 -10   95.91    1.89
  -3   0 -10   91.08    2.03
  -3   0 -10   97.29    2.21
   3   0  10   92.68    2.23
   3   0  10   92.36    2.31
   3   0  10   86.03    2.24
   3   0  11   21.40    0.80
  -3   0 -11   20.58    0.73
  -3   0 -11   18.30    0.61
   3   0  11   19.92    0.75
   3   0  11   20.34    0.78
   3   1  -8   11.76    0.55
  -3  -1   8   11.92    0.55
  -3  -1   8   12.73    0.63
  -3  -1   7   10.44    0.56
  -3  -1   7   10.51    0.57
   3   1  -7   10.15    0.63
  -3  -1   7   10.64    0.69
  -3  -1   6  125.21    2.42
  -3  -1   6  131.58    2.70
  -3  -1   6  123.74    2.87
   3   1  -6  129.76    2.80
  -3  -1   6  121.21    2.85
  -3  -1   5  188.06    3.46
   3   1  -5  182.86    3.52
  -3  -1   5  181.83    3.66
  -3  -1   5  181.69    3.18
  -3  -1   5  180.27    3.63
   3   1  -4    1.76    0.28
  -3  -1   4    2.29    0.33
  -3  -1   4    1.82    0.24
  -3  -1   4    1.78    0.23
  -3  -1   4    2.06    0.30
   3   1  -3   14.81    0.63
  -3  -1   3   15.39    0.60
   3   1  -3   17.02    0.77
  -3  -1   3   15.74    0.76
  -3  -1   3   16.46    0.68
  -3  -1   3   14.95    0.70
  -3  -1   3   15.18    0.69
   3   1  -2    2.47    0.26
   3   1  -2    2.45    0.26
  -3  -1   2    2.47    0.26
  -3  -1   2    2.15    0.24
   3   1  -2    2.50    0.26
  -3  -1   2    2.73    0.28
   3   1  -2    3.18    0.29
   3   1  -2    2.92    0.28
  -3  -1   2    2.69    0.26
  -3  -1   1  427.41    5.85
   3   1  -1  424.32    5.83
  -3  -1   1  439.92    5.83
  -3  -1   1  409.59    5.71
   3   1  -1  417.92    5.71
   3   1  -1  440.31    5.86
  -3  -1   1  426.11    5.79
   3   1  -1  429.06    5.83
  -3  -1   1  434.81    5.88
   3   1  -1  434.88    5.84
  -3  -1   1  435.00    5.84
  -3  -1   0  563.55    7.23
  -3  -1   0  567.91    7.19
   3   1   0  538.09    7.16
   3   1   0  573.18    7.22
  -3  -1   0  563.27    7.15
   3   1   0  549.70    7.22
  -3  -1   0  556.78    7.22
  -3  -1   0  543.96    7.19
   3   1   0  555.21    7.19
  -3  -1  -1  360.10    4.79
  -3  -1  -1  350.13    4.74
  -3  -1  -1  353.20    4.64
   3   1   1  357.87    4.76
   3   1   1  367.17    4.71
  -3  -1  -1  363.43    4.80
   3   1   1  352.67    4.76
  -3  -1  -1  364.55    4.77
  -3  -1  -2    1.24    0.14
   3   1   2    1.69    0.16
  -3  -1  -2    1.74    0.16
   3   1   2    1.53    0.12
   3   1   3  123.60    1.91
  -3  -1  -3  122.65    2.03
  -3  -1  -3  124.12    1.94
  -3  -1  -3  126.14    2.05
   3   1   3  126.68    2.02
   3   1   3  129.03    1.74
  -3  -1  -3  122.99    2.07
   3   1   3  132.81    2.02
   3   1   3  130.28    2.03
   3   1   3  124.71    1.86
   3   1   4  160.45    2.18
   3   1   4  166.09    2.35
  -3  -1  -4  161.85    2.58
   3   1   4  163.56    2.53
   3   1   4  166.97    2.58
  -3  -1  -4  160.22    2.58
   3   1   4  161.25    2.11
  -3  -1  -4  160.29    2.37
  -3  -1  -4  158.75    2.55
   3   1   4  167.22    2.58
   3   1   5  138.44    2.11
  -3  -1  -5  131.00    2.37
  -3  -1  -5  133.90    2.10
  -3  -1  -5  141.15    2.46
   3   1   5  139.15    2.48
   3   1   5  134.51    2.13
  -3  -1  -5  135.62    2.36
   3   1   5  137.48    1.90
  -3  -1  -6    2.98    0.33
   3   1   6    2.66    0.25
   3   1   6    2.46    0.31
   3   1   6    3.45    0.33
   3   1   6    3.71    0.35
   3   1   7   45.37    1.51
   3   1   7   46.27    1.21
  -3  -1  -7   47.49    1.45
  -3  -1  -7   48.70    1.16
   3   1   7   47.92    1.51
   3   1   7   45.27    1.22
   3   1   7   48.43    1.46
   3   1   7   46.79    1.46
   3   1   8   69.37    1.97
  -3  -1  -8   73.87    2.08
  -3  -1  -8   72.57    1.90
   3   1   8   70.38    2.02
   3   1   8   72.98    2.03
   3   1   8   69.04    1.98
   3   1   9  102.78    2.57
  -3  -1  -9  106.24    2.29
   3   1   9  102.85    2.55
  -3  -1  -9  105.87    2.56
   3   1   9  101.39    2.54
   3   1   9  100.57    2.54
   3   1  10  140.51    2.98
  -3  -1 -10  151.11    2.91
  -3  -1 -10  136.67    2.80
  -3  -1 -10  147.90    2.47
   3   1  10  134.48    2.86
   3   1  10  139.46    2.90
   3   1  11   30.12    0.98
  -3  -1 -11   29.63    0.88
  -3  -1 -11   25.58    0.80
   3   1  11   26.64    0.87
   3   1  11   28.48    0.86
  -3  -2   8    1.79    0.19
   3   2  -8    2.38    0.25
  -3  -2   8    1.79    0.23
  -3  -2   8    2.31    0.27
  -3  -2   7   24.77    0.90
  -3  -2   7   26.49    0.86
   3   2  -7   25.63    1.03
  -3  -2   7   24.08    1.04
  -3  -2   7   25.34    1.08
  -3  -2   6   90.22    2.02
   3   2  -6   83.11    2.19
  -3  -2   6   83.85    2.00
  -3  -2   6   87.32    2.27
  -3  -2   6   81.54    2.23
   3   2  -5   46.96    1.56
  -3  -2   5   46.74    1.41
  -3  -2   5   47.30    1.61
  -3  -2   5   49.67    1.28
  -3  -2   5   46.81    1.62
   3   2  -5   48.14    1.26
   3   2  -4    9.03    0.50
   3   2  -4    9.26    0.63
  -3  -2   4    9.33    0.64
  -3  -2   4    9.35    0.56
  -3  -2   4    9.20    0.54
  -3  -2   4    8.65    0.60
   3   2  -3  116.33    2.10
  -3  -2   3  118.48    2.40
   3   2  -3  117.19    2.11
  -3  -2   3  120.21    2.30
  -3  -2   3  116.39    2.14
   3   2  -3  123.52    2.50
  -3  -2   3  113.36    2.33
  -3  -2   3  112.24    2.27
  -3  -2   3  117.41    2.20
  -3  -2   2  192.13    3.08
   3   2  -2  191.11    3.09
   3   2  -2  180.15    2.76
   3   2  -2  191.35    3.18
   3   2  -2  186.79    3.08
  -3  -2   2  192.13    3.12
   3   2  -2  177.56    3.04
   3   2  -2  183.55    2.92
  -3  -2   2  192.17    3.10
  -3  -2   1  683.36    8.79
   3   2  -1  699.75    8.78
  -3  -2   1  672.69    8.69
   3   2  -1  668.06    8.72
  -3  -2   1  629.06    8.52
   3   2  -1  649.18    8.73
  -3  -2   1  662.74    8.74
   3   2  -1  669.67    8.71
  -3  -2   1  672.80    8.75
   3   2  -1  639.19    8.59
   3   2  -1  673.88    8.73
  -3  -2   1  676.78    8.43
   3   2   0  240.41    3.51
   3   2   0  247.40    3.54
   3   2   0  248.72    3.51
   3   2   0  246.77    3.52
  -3  -2   0  239.12    3.45
  -3  -2   0  239.73    3.52
   3   2   0  239.35    3.48
  -3  -2   0  243.61    3.50
  -3  -2   0  255.73    3.60
  -3  -2   0  246.98    3.58
   3   2   1   33.59    0.79
  -3  -2  -1   34.52    0.80
   3   2   1   32.67    0.75
  -3  -2  -1   33.26    0.71
  -3  -2  -1   32.17    0.80
  -3  -2  -1   33.80    0.82
   3   2   1   34.02    0.80
   3   2   2   20.88    0.61
  -3  -2  -2   22.80    0.61
  -3  -2  -2   20.99    0.59
   3   2   2   20.91    0.59
   3   2   2   22.15    0.58
   3   2   2   22.18    0.47
  -3  -2  -2   21.96    0.61
   3   2   3    9.71    0.34
  -3  -2  -3   10.28    0.37
  -3  -2  -3   10.07    0.42
   3   2   3   10.08    0.40
   3   2   3   10.01    0.40
  -3  -2  -3    9.35    0.38
   3   2   3    9.30    0.37
   3   2   4  238.38    3.11
  -3  -2  -4  229.95    3.18
   3   2   4  230.15    3.45
  -3  -2  -4  231.44    3.45
   3   2   4  232.86    3.40
   3   2   4  230.20    3.44
   3   2   4  234.77    3.19
  -3  -2  -4  227.55    3.33
  -3  -2  -4  231.29    3.28
   3   2   5  183.17    2.47
   3   2   5  184.36    3.05
  -3  -2  -5  181.30    2.94
  -3  -2  -5  179.81    2.99
  -3  -2  -5  175.93    2.81
  -3  -2  -5  173.71    2.50
   3   2   6   86.56    1.86
   3   2   6   83.17    1.62
  -3  -2  -6   86.67    1.74
  -3  -2  -6   77.01    1.57
   3   2   6   83.52    1.98
   3   2   6   78.88    1.66
   3   2   6   84.14    1.81
   3   2   6   85.31    1.80
   3   2   7  117.94    2.55
   3   2   7  115.94    2.14
  -3  -2  -7  118.94    2.53
   3   2   7  120.02    2.61
  -3  -2  -7  121.06    2.15
   3   2   7  115.71    2.16
   3   2   7  117.01    2.49
   3   2   7  120.90    2.48
   3   2   8   61.06    1.87
  -3  -2  -8   62.78    1.71
   3   2   8   60.89    1.84
   3   2   8   62.69    1.79
   3   2   8   63.26    1.79
   3   2   9   42.85    1.58
  -3  -2  -9   46.30    1.58
  -3  -2  -9   46.47    1.34
   3   2   9   44.07    1.53
   3   2   9   45.92    1.52
   3   2  10   26.40    1.12
  -3  -2 -10   27.99    1.05
   3   2  10   26.30    1.03
   3   2  10   26.15    0.99
   3   2  11   27.12    0.91
  -3  -2 -11   27.89    0.80
  -3  -2 -11   25.51    0.80
   3   2  11   25.10    0.77
   3   3  -8    6.34    0.40
   3   3  -8    6.42    0.41
  -3  -3   8    5.83    0.33
  -3  -3   8    6.13    0.42
  -3  -3   8    5.91    0.40
  -3  -3   7   22.56    0.90
   3   3  -7   23.85    0.98
  -3  -3   7   22.36    0.97
  -3  -3   7   22.52    0.97
   3   3  -6   99.35    2.01
  -3  -3   6  102.16    2.08
   3   3  -6   98.40    2.42
  -3  -3   6   95.84    2.30
  -3  -3   6   97.76    2.44
  -3  -3   6   98.57    2.40
   3   3  -5  114.46    2.31
   3   3  -5  114.58    2.68
  -3  -3   5  110.13    2.64
  -3  -3   5  115.41    2.55
  -3  -3   5  115.83    2.29
  -3  -3   5  111.75    2.72
   3   3  -4  196.93    3.43
   3   3  -4  202.27    3.85
   3   3  -4  210.98    3.48
  -3  -3   4  202.15    3.76
  -3  -3   4  207.07    3.64
  -3  -3   4  210.55    3.56
  -3  -3   4  203.58    3.76
  -3  -3   3   81.48    1.86
   3   3  -3   81.59    1.84
   3   3  -3   81.36    1.78
   3   3  -3   84.56    2.08
  -3  -3   3   85.35    2.01
  -3  -3   3   83.75    1.89
  -3  -3   3   81.06    1.89
  -3  -3   3   83.25    1.92
  -3  -3   3   84.10    1.83
   3   3  -2  288.31    4.42
   3   3  -2  287.91    4.31
   3   3  -2  283.19    4.25
  -3  -3   2  291.65    3.93
   3   3  -2  291.50    4.58
  -3  -3   2  287.78    4.32
  -3  -3   2  300.19    4.47
  -3  -3   2  293.50    4.37
   3   3  -2  300.93    4.43
  -3  -3   2  278.04    4.41
   3   3  -1    3.81    0.32
   3   3  -1    3.64    0.29
  -3  -3   1    4.94    0.33
  -3  -3   1    4.18    0.28
   3   3  -1    4.53    0.32
   3   3  -1    4.76    0.31
   3   3  -1    3.38    0.31
  -3  -3   1    3.60    0.29
  -3  -3   1    5.10    0.34
   3   3  -1    4.39    0.31
   3   3  -1    3.77    0.31
  -3  -3   1    3.98    0.32
  -3  -3   0   16.70    0.61
  -3  -3   0   16.17    0.56
   3   3   0   16.99    0.56
   3   3   0   17.02    0.59
   3   3   0   17.03    0.63
  -3  -3   0   16.55    0.56
  -3  -3   0   16.48    0.57
   3   3   0   17.14    0.63
  -3  -3   0   17.23    0.64
   3   3   0   16.37    0.55
  -3  -3  -1  185.82    2.78
   3   3   1  185.62    2.70
   3   3   1  177.99    2.87
  -3  -3  -1  181.56    2.71
   3   3   1  188.77    2.74
   3   3   1  186.02    2.70
  -3  -3  -1  184.28    2.62
  -3  -3  -1  181.52    2.73
   3   3   1  192.40    2.88
  -3  -3  -1  198.94    2.89
   3   3   1  185.33    2.83
  -3  -3  -2   22.89    0.61
   3   3   2   22.87    0.57
  -3  -3  -2   23.70    0.64
   3   3   2   22.93    0.68
   3   3   2   23.20    0.62
   3   3   2   22.89    0.70
  -3  -3  -2   23.05    0.41
   3   3   2   22.43    0.68
   3   3   3   17.78    0.45
   3   3   3   16.20    0.57
  -3  -3  -3   17.49    0.50
   3   3   3   17.74    0.55
   3   3   3   18.17    0.59
  -3  -3  -3   17.81    0.50
   3   3   3   17.17    0.54
   3   3   4  215.75    2.74
  -3  -3  -4  210.30    2.98
   3   3   4  210.51    3.22
   3   3   4  208.15    3.23
  -3  -3  -4  212.91    3.22
   3   3   4  207.41    3.14
   3   3   4  213.46    3.12
  -3  -3  -4  213.68    2.89
  -3  -3  -5   87.02    1.49
   3   3   5   87.99    1.87
  -3  -3  -5   90.37    1.79
  -3  -3  -5   88.50    1.56
   3   3   6  269.02    4.23
   3   3   6  253.32    3.76
   3   3   6  263.75    4.07
   3   3   6  263.95    4.21
  -3  -3  -6  256.12    4.03
   3   3   6  256.48    3.93
   3   3   6  265.46    4.04
   3   3   7    6.77    0.55
   3   3   7    7.15    0.48
  -3  -3  -7    7.75    0.44
   3   3   7    6.72    0.53
   3   3   7    7.87    0.54
   3   3   8    1.49    0.31
   3   3   8    1.61    0.23
  -3  -3  -8    2.30    0.31
   3   3   8    1.92    0.31
   3   3   8    1.39    0.25
   3   3   9   13.59    0.86
  -3  -3  -9   14.44    0.69
   3   3   9   13.89    0.78
   3   3   9   13.66    0.72
  -3  -3  -9   16.07    0.87
   3   3  10   33.37    1.24
  -3  -3 -10   34.71    1.13
   3   3  10   32.65    1.05
   3   3  11   27.72    0.87
   3   4  -8   28.58    0.83
  -3  -4   8   26.99    0.78
  -3  -4   8   28.81    0.89
  -3  -4   8   26.98    0.79
  -3  -4   7   35.27    1.16
   3   4  -7   33.01    0.86
   3   4  -7   35.50    1.18
  -3  -4   7   34.55    1.16
  -3  -4   7   34.49    1.12
   3   4  -6   42.57    1.24
   3   4  -6   42.30    1.47
  -3  -4   6   42.72    1.46
  -3  -4   6   43.02    1.45
  -3  -4   6   44.19    1.41
   3   4  -5  255.67    4.26
   3   4  -5  249.29    4.62
  -3  -4   5  251.12    4.51
  -3  -4   5  258.64    4.59
  -3  -4   5  260.06    4.21
   3   4  -4   70.56    1.81
   3   4  -4   68.57    1.97
  -3  -4   4   71.35    1.97
  -3  -4   4   67.37    1.87
  -3  -4   4   72.48    1.82
  -3  -4   4   67.86    1.86
  -3  -4   4   65.92    1.86
   3   4  -4   72.35    1.85
   3   4  -3   14.32    0.81
   3   4  -3   14.61    0.73
  -3  -4   3   14.11    0.76
  -3  -4   3   13.25    0.70
   3   4  -3   14.37    0.75
  -3  -4   3   14.61    0.73
  -3  -4   3   12.66    0.61
  -3  -4   3   13.90    0.73
   3   4  -2   10.19    0.49
   3   4  -2    8.72    0.53
   3   4  -2    9.22    0.46
   3   4  -2    9.39    0.61
  -3  -4   2    9.47    0.55
  -3  -4   2    9.16    0.51
  -3  -4   2    9.52    0.44
  -3  -4   2    8.45    0.46
   3   4  -2    7.91    0.54
  -3  -4   2    9.01    0.56
  -3  -4   2    8.94    0.53
   3   4  -1    6.57    0.45
  -3  -4   1    6.66    0.37
   3   4  -1    7.44    0.40
   3   4  -1    5.97    0.41
   3   4  -1    5.99    0.38
   3   4  -1    6.95    0.40
  -3  -4   1    7.07    0.40
  -3  -4   1    7.25    0.39
   3   4  -1    7.13    0.41
  -3  -4   1    7.20    0.40
   3   4  -1    6.95    0.48
   3   4  -1    6.80    0.47
  -3  -4   1    6.84    0.39
  -3  -4   1    7.02    0.47
   3   4   0  282.54    4.14
   3   4   0  282.40    3.96
  -3  -4   0  277.00    3.88
   3   4   0  271.05    4.07
   3   4   0  272.96    3.84
   3   4   0  274.27    4.18
   3   4   0  274.86    4.08
  -3  -4   0  274.92    3.92
  -3  -4   0  270.25    3.88
   3   4   0  266.97    4.20
  -3  -4   0  280.07    4.21
   3   4   0  277.19    3.81
   3   4   1  358.52    5.01
  -3  -4  -1  363.24    4.86
   3   4   1  370.36    4.80
  -3  -4  -1  361.44    4.80
   3   4   1  350.59    5.05
   3   4   1  362.34    4.77
  -3  -4  -1  370.73    4.78
  -3  -4  -1  362.13    4.82
   3   4   1  354.80    5.15
  -3  -4  -1  377.17    5.15
   3   4   1  339.31    5.07
   3   4   1  358.60    5.12
   3   4   2   99.16    1.68
  -3  -4  -2  100.08    1.57
  -3  -4  -2   95.62    1.61
   3   4   2   95.02    1.81
   3   4   2   97.62    1.61
  -3  -4  -2   96.06    1.35
   3   4   2   96.25    1.84
  -3  -4  -2   94.97    1.62
  -3  -4  -2  101.53    1.79
   3   4   2  100.48    1.86
   3   4   3    5.04    0.21
   3   4   3    5.25    0.23
  -3  -4  -3    5.34    0.22
  -3  -4  -3    4.58    0.25
   3   4   3    4.92    0.34
   3   4   3    5.23    0.29
   3   4   3    5.26    0.33
   3   4   3    5.66    0.29
   3   4   4  139.36    2.26
  -3  -4  -4  139.60    2.25
   3   4   4  134.83    2.20
   3   4   5  268.86    4.17
   3   4   5  265.80    4.03
  -3  -4  -5  258.56    3.77
   3   4   5  266.53    4.18
   3   4   5  264.40    3.94
   3   4   5  253.20    3.93
   3   4   6   99.30    2.24
   3   4   6   97.91    2.08
   3   4   6   97.89    2.15
   3   4   6   97.53    1.96
   3   4   6   93.37    2.04
   3   4   6   95.95    1.89
   3   4   6   97.51    2.12
   3   4   7    0.62    0.19
   3   4   7    0.63    0.18
  -3  -4  -7    0.53    0.14
   3   4   7    0.92    0.21
   3   4   7    0.95    0.19
   3   4   7    0.50    0.14
   3   4   8    5.02    0.53
   3   4   8    4.87    0.40
   3   4   8    5.19    0.43
  -3  -4  -8    4.96    0.44
   3   4   8    4.95    0.45
   3   4   9   68.93    1.99
   3   4   9   66.41    1.47
  -3  -4  -9   70.08    1.88
  -3  -4  -9   71.28    1.59
   3   4  10  150.41    2.95
  -3  -4 -10  158.71    2.73
   3   5  -7    0.65    0.13
  -3  -5   7    0.70    0.16
  -3  -5   7    0.77    0.18
   3   5  -7    0.86    0.15
   3   5  -7    0.87    0.18
  -3  -5   7    0.46    0.13
   3   5  -6   35.19    1.12
  -3  -5   6   31.86    1.23
   3   5  -6   31.47    1.20
   3   5  -6   30.04    1.04
  -3  -5   6   31.08    1.17
   3   5  -6   31.99    1.00
  -3  -5   6   31.43    1.05
   3   5  -5   88.55    2.11
   3   5  -5   86.43    2.28
  -3  -5   5   89.11    2.22
  -3  -5   5   84.46    2.23
   3   5  -5   87.67    2.09
  -3  -5   5   86.15    1.99
  -3  -5   5   86.26    1.96
   3   5  -4    1.26    0.25
  -3  -5   4    0.94    0.23
  -3  -5   4    1.07    0.23
   3   5  -4    1.15    0.26
  -3  -5   4    0.98    0.22
  -3  -5   4    1.03    0.24
   3   5  -3    2.44    0.34
  -3  -5   3    2.70    0.34
  -3  -5   3    2.87    0.34
   3   5  -3    2.90    0.40
   3   5  -3    2.86    0.37
  -3  -5   3    2.41    0.34
  -3  -5   3    2.42    0.33
   3   5  -2    7.25    0.54
   3   5  -2    7.71    0.59
  -3  -5   2    7.16    0.48
  -3  -5   2    6.42    0.45
   3   5  -2    7.11    0.44
   3   5  -2    6.98    0.55
  -3  -5   2    7.04    0.54
  -3  -5   2    6.52    0.39
  -3  -5   2    6.73    0.49
   3   5  -1  476.39    7.06
  -3  -5   1  507.80    6.60
  -3  -5   1  510.58    6.67
  -3  -5   1  492.07    6.89
   3   5  -1  472.95    7.17
  -3  -5   1  495.32    7.19
   3   5  -1  477.41    7.18
   3   5   0  581.84    8.11
   3   5   0  623.64    7.78
   3   5   0  606.32    8.14
   3   5   0  586.03    8.31
  -3  -5   0  626.37    8.31
   3   5   0  620.08    8.41
  -3  -5   0  586.93    7.78
  -3  -5   0  632.37    7.69
   3   5   0  604.38    8.44
  -3  -5   0  571.75    8.36
   3   5   1   88.96    1.76
  -3  -5  -1   93.07    1.55
   3   5   1   89.62    1.95
   3   5   1   88.61    1.89
  -3  -5  -1   92.82    1.50
   3   5   1   91.37    1.97
   3   5   1   89.66    1.44
  -3  -5  -1   92.90    1.98
   3   5   1   94.78    1.49
   3   5   1   94.13    2.00
  -3  -5  -2    4.69    0.24
   3   5   2    4.85    0.27
   3   5   2    4.72    0.37
   3   5   2    4.70    0.38
   3   5   2    4.60    0.36
  -3  -5  -2    4.43    0.35
   3   5   3   12.41    0.59
   3   5   3   12.26    0.61
   3   5   3   12.50    0.57
   3   5   3   12.42    0.61
  -3  -5  -3   13.88    0.52
   3   5   3   13.04    0.59
   3   5   4   68.62    1.61
   3   5   4   63.60    1.56
   3   5   4   64.28    1.65
   3   5   4   62.68    1.34
   3   5   4   65.06    1.58
   3   5   5  366.90    5.51
   3   5   5  361.43    5.41
   3   5   5  348.12    5.53
   3   5   5  350.64    5.04
   3   5   5  357.82    5.35
   3   5   5  342.40    5.09
   3   5   6    0.89    0.23
   3   5   6    1.15    0.23
   3   5   6    1.03    0.19
   3   5   6    1.02    0.24
   3   5   6    0.97    0.21
   3   5   6    1.07    0.21
   3   5   7   17.54    0.98
   3   5   7   18.27    0.88
   3   5   7   18.52    0.91
   3   5   7   17.31    0.76
   3   5   7   18.77    0.82
  -3  -5  -7   19.14    0.75
   3   5   8    6.39    0.59
   3   5   8    6.55    0.50
   3   5   8    6.00    0.49
  -3  -5  -8    6.87    0.50
   3   5   9  126.04    2.79
   3   5   9  127.32    2.32
   3   5   9  134.32    2.27
   3   5  10  118.91    2.30
  -3  -6   7    7.59    0.47
   3   6  -7    6.77    0.40
  -3  -6   7    7.26    0.40
   3   6  -7    7.32    0.34
  -3  -6   7    7.13    0.42
  -3  -6   6   68.22    1.81
   3   6  -6   68.08    1.74
   3   6  -6   67.59    1.60
   3   6  -6   65.68    1.57
  -3  -6   6   68.77    1.67
   3   6  -5   95.64    2.24
   3   6  -5   96.97    2.29
  -3  -6   5   97.64    2.23
   3   6  -5   96.52    2.38
  -3  -6   5   98.68    2.14
  -3  -6   5   94.34    2.38
   3   6  -4   59.61    1.79
   3   6  -4   61.18    1.90
  -3  -6   4   60.69    1.70
  -3  -6   4   59.39    1.67
   3   6  -4   61.58    1.87
  -3  -6   4   59.75    1.74
  -3  -6   4   59.93    1.80
   3   6  -3   62.70    1.87
  -3  -6   3   59.58    1.63
  -3  -6   3   58.81    1.60
   3   6  -3   59.91    1.91
  -3  -6   3   58.34    1.80
  -3  -6   3   59.26    1.75
   3   6  -3   62.97    1.95
  -3  -6   2  208.10    3.75
   3   6  -2  209.97    3.99
   3   6  -2  214.48    4.07
  -3  -6   2  215.68    3.53
  -3  -6   2  207.68    3.52
   3   6  -2  211.31    4.08
  -3  -6   2  215.95    4.00
   3   6  -1  201.95    3.85
   3   6  -1  203.04    3.86
  -3  -6   1  204.71    3.58
  -3  -6   1  217.58    3.36
   3   6  -1  214.81    3.99
  -3  -6   1  210.98    3.94
   3   6  -1  210.68    3.27
   3   6   0   80.57    2.05
   3   6   0   83.85    2.11
  -3  -6   0   84.41    2.12
   3   6   0   79.02    1.76
   3   6   0   80.70    2.02
   3   6   1    0.79    0.17
   3   6   1    0.69    0.19
   3   6   1    0.83    0.20
   3   6   1    0.43    0.14
  -3  -6  -1    0.62    0.18
   3   6   1    0.47    0.15
   3   6   2    0.72    0.16
   3   6   2    0.69    0.18
   3   6   2    0.81    0.17
   3   6   2    0.77    0.16
   3   6   2    0.93    0.20
   3   6   2    0.77    0.19
   3   6   3   30.88    1.07
   3   6   3   30.43    1.00
   3   6   3   32.94    1.15
   3   6   3   30.81    1.12
   3   6   3   32.27    0.99
  -3  -6  -3   32.49    0.97
   3   6   3   30.75    1.06
   3   6   4  170.00    3.15
   3   6   4  161.49    3.22
   3   6   4  163.44    2.90
   3   6   4  158.89    3.14
   3   6   4  166.27    3.14
   3   6   5   29.21    1.16
   3   6   5   29.15    1.22
   3   6   5   30.04    1.04
   3   6   5   28.80    1.15
   3   6   5   29.96    0.93
   3   6   5   29.56    1.19
   3   6   6   58.67    1.84
   3   6   6   57.53    1.75
   3   6   6   55.31    1.78
   3   6   6   57.45    1.54
   3   6   6   57.65    1.69
   3   6   7   35.18    1.41
   3   6   7   35.64    1.33
   3   6   7   34.88    1.35
   3   6   7   33.34    1.12
   3   6   7   33.11    1.20
  -3  -6  -7   36.24    1.04
   3   6   8   44.99    1.42
   3   6   8   48.37    1.43
  -3  -6  -8   48.25    1.28
   3   6   8   46.72    1.59
  -3  -6  -9   19.12    0.73
   3   6   9   17.70    0.82
  -3  -7   6   99.11    2.07
   3   7  -6   94.61    1.86
   3   7  -6   95.42    1.90
  -3  -7   6   89.45    1.78
   3   7  -6   89.84    1.82
   3   7  -6   92.39    1.92
  -3  -7   6   86.28    1.72
  -3  -7   5   53.07    1.41
   3   7  -5   53.47    1.52
   3   7  -5   53.97    1.56
  -3  -7   5   53.36    1.60
   3   7  -5   53.45    1.56
  -3  -7   5   51.60    1.40
   3   7  -4   93.34    2.33
   3   7  -4   93.01    2.33
  -3  -7   4   91.68    2.05
  -3  -7   4   91.96    2.28
   3   7  -4   92.79    2.39
  -3  -7   4   92.21    2.25
   3   7  -3    2.30    0.37
  -3  -7   3    2.39    0.29
   3   7  -3    2.02    0.36
  -3  -7   3    2.29    0.34
  -3  -7   3    2.24    0.35
   3   7  -3    3.10    0.42
   3   7  -2   54.78    1.83
   3   7  -2   52.92    1.77
  -3  -7   2   54.17    1.41
   3   7  -2   55.09    1.87
  -3  -7   2   54.53    1.78
  -3  -7   2   53.17    1.59
  -3  -7   1    9.44    0.60
   3   7  -1    7.89    0.66
   3   7  -1    9.34    0.69
   3   7  -1    9.18    0.51
   3   7  -1    9.05    0.71
  -3  -7   1    7.76    0.65
   3   7   0    6.25    0.58
  -3  -7   0    7.50    0.49
   3   7   0    5.97    0.53
   3   7   0    6.53    0.49
   3   7   0    6.39    0.57
  -3  -7   0    6.62    0.59
   3   7   1   98.66    1.89
   3   7   1   92.64    2.20
   3   7   1   95.82    2.31
   3   7   1   90.65    2.24
   3   7   1   89.95    2.15
  -3  -7  -1   94.60    2.37
   3   7   2   41.09    1.33
   3   7   2   41.86    1.42
   3   7   2   42.40    1.32
  -3  -7  -2   40.66    1.37
   3   7   2   42.55    1.37
   3   7   3   67.61    1.83
   3   7   3   66.02    1.85
   3   7   3   66.00    1.73
   3   7   3   65.18    1.89
   3   7   3   64.59    1.53
  -3  -7  -3   68.27    1.62
   3   7   3   64.91    1.81
   3   7   4   74.29    2.01
   3   7   4   73.54    1.85
   3   7   4   72.15    2.05
   3   7   4   68.63    2.02
   3   7   4   72.89    2.00
   3   7   5   73.63    2.06
   3   7   5   72.53    2.16
   3   7   5   72.99    1.87
   3   7   5   73.37    2.08
   3   7   5   73.41    2.08
   3   7   6   83.50    2.24
   3   7   6   77.52    2.26
   3   7   6   84.32    2.00
   3   7   6   81.63    2.17
   3   7   6   82.80    2.27
   3   7   7   26.77    1.17
   3   7   7   28.30    1.16
   3   7   7   25.89    0.96
   3   7   7   26.93    1.07
   3   7   7   27.32    1.18
   3   7   8    3.96    0.41
   3   7   9    0.84    0.16
  -3  -8   6   14.21    0.57
   3   8  -6   14.88    0.58
   3   8  -5   14.40    0.67
  -3  -8   5   14.35    0.69
   3   8  -5   13.92    0.63
  -3  -8   5   14.16    0.53
   3   8  -5   13.23    0.66
  -3  -8   5   13.89    0.60
   3   8  -4    1.75    0.29
   3   8  -4    1.77    0.27
  -3  -8   4    1.84    0.23
   3   8  -4    1.60    0.29
  -3  -8   4    1.71    0.27
  -3  -8   4    1.39    0.25
  -3  -8   3   12.94    0.72
   3   8  -3   13.63    0.84
   3   8  -3   12.94    0.76
  -3  -8   3   13.37    0.61
   3   8  -3   12.80    0.83
  -3  -8   3   12.77    0.78
   3   8  -2    1.32    0.29
   3   8  -2    1.44    0.32
   3   8  -2    1.22    0.29
  -3  -8   2    1.36    0.26
  -3  -8   2    1.66    0.32
   3   8  -1   66.70    2.08
   3   8  -1   65.58    2.04
   3   8  -1   65.39    1.93
   3   8  -1   65.67    2.05
  -3  -8   1   64.59    1.99
  -3  -8   1   64.21    1.65
   3   8   0  119.46    2.85
   3   8   0  121.91    2.73
   3   8   0  128.90    2.92
  -3  -8   0  120.41    2.88
   3   8   1  303.07    4.70
   3   8   1  313.84    5.34
   3   8   1  313.31    5.19
   3   8   1  318.44    5.23
  -3  -8  -1  308.69    5.33
   3   8   2   37.12    1.21
   3   8   2   36.66    1.37
   3   8   2   36.80    1.41
  -3  -8  -2   36.68    1.32
   3   8   2   37.34    1.38
   3   8   3   11.59    0.76
   3   8   3   11.06    0.79
   3   8   3   11.79    0.74
   3   8   3   12.62    0.80
   3   8   4   14.61    0.90
   3   8   4   14.48    0.81
   3   8   4   14.22    0.90
   3   8   4   15.32    0.89
   3   8   5  121.44    2.81
   3   8   5  118.92    2.87
   3   8   5  116.20    2.57
   3   8   5  115.30    2.82
   3   8   5  120.50    2.80
   3   8   6   30.67    1.30
   3   8   6   32.14    1.27
   3   8   6   29.20    1.08
   3   8   6   30.83    1.24
   3   8   6   28.16    1.19
   3   8   7    1.26    0.24
   3   8   7    0.89    0.17
   3   8   8    0.84    0.16
   3   9  -5   43.95    1.13
   3   9  -5   41.62    1.03
   3   9  -5   43.44    1.15
  -3  -9   4   28.44    0.87
   3   9  -4   30.92    1.02
   3   9  -4   29.96    1.07
   3   9  -4   29.49    1.02
  -3  -9   4   27.04    0.92
   3   9  -4   30.70    1.11
   3   9  -4   29.30    0.81
   3   9  -3   26.59    1.09
   3   9  -3   26.86    1.13
  -3  -9   3   25.91    0.86
   3   9  -3   26.64    0.92
   3   9  -3   26.55    1.08
  -3  -9   3   26.89    1.04
   3   9  -2   50.82    1.70
   3   9  -2   50.51    1.44
  -3  -9   2   50.13    1.23
   3   9  -2   53.62    1.69
  -3  -9   2   47.58    1.55
   3   9  -1  151.20    2.98
   3   9  -1  157.92    3.45
  -3  -9   1  144.66    3.19
   3   9  -1  164.92    3.34
   3   9  -1  155.57    3.02
   3   9   0  122.78    2.54
   3   9   0  127.60    3.03
   3   9   0  131.93    2.58
  -3  -9   0  125.76    2.89
   3   9   1   28.82    1.27
   3   9   1   28.13    1.14
   3   9   1   30.62    1.12
  -3  -9  -1   26.54    1.15
   3   9   2    0.76    0.23
  -3  -9  -2    0.59    0.18
   3   9   2    0.97    0.25
   3   9   3   14.49    0.80
   3   9   3   13.67    0.86
   3   9   3   12.56    0.79
   3   9   4   78.35    2.11
   3   9   4   79.97    2.06
   3   9   4   75.63    2.18
   3   9   4   77.16    2.09
   3   9   5   50.30    1.48
   3   9   5   49.68    1.63
   3   9   5   52.96    1.60
   3   9   6   16.78    0.70
   3   9   6   16.37    0.77
   3   9   7    5.06    0.36
   3  10  -3    2.32    0.28
   3  10  -3    2.71    0.27
  -3 -10   3    2.48    0.25
   3  10  -3    3.13    0.31
   3  10  -2   32.92    1.15
   3  10  -2   34.07    1.05
   3  10  -2   32.38    1.07
   3  10  -1   67.24    1.87
   3  10  -1   70.15    1.68
  -3 -10   1   61.00    1.64
   3  10  -1   63.47    1.61
   3  10   0    4.49    0.35
   3  10   0    5.06    0.50
  -3 -10   0    4.05    0.39
   3  10   1    0.51    0.19
  -3 -10  -1    0.55    0.17
   3  10   1    0.44    0.16
   3  10   2    1.50    0.27
   3  10   2    1.70    0.28
   3  10   3   27.73    1.08
   3  10   3   28.29    1.12
   3  10   4  104.24    2.19
   3  10   4   99.64    2.30
   3  10   5   51.79    1.26
   3  11  -1   16.23    0.67
   3  11   0   26.00    0.92
   3  11   1    6.75    0.46
   3  11   2   47.21    1.26
  -4   9  -2   89.33    1.78
  -4   9  -3   31.13    0.91
  -4   8   1    2.80    0.29
  -4   8   1    2.79    0.26
  -4   8   0   10.09    0.60
  -4   8   0    9.75    0.51
  -4   8  -1   53.69    1.52
   4  -8   1   51.28    1.46
  -4   8  -1   51.28    1.27
  -4   8  -2   42.92    1.36
   4  -8   2   41.75    1.33
  -4   8  -2   40.84    1.23
   4  -8   3    1.33    0.19
   4  -8   3    1.66    0.26
  -4   8  -3    1.90    0.27
  -4   8  -3    1.64    0.24
  -4   8  -4    4.74    0.41
   4  -8   4    5.11    0.43
   4  -8   4    5.06    0.32
  -4   8  -4    4.71    0.42
  -4   8  -4    4.56    0.38
  -4   8  -4    4.95    0.42
   4  -8   4    4.57    0.38
  -4   8  -5   53.49    1.37
   4  -8   5   48.34    1.12
   4  -8   5   53.57    1.39
  -4   8  -5   50.65    1.39
  -4   8  -5   52.10    1.45
   4  -8   5   51.57    1.37
   4  -8   6   69.35    1.52
  -4   8  -6   67.98    1.52
  -4   8  -6   67.82    1.45
  -4   8  -6   69.75    1.66
   4  -8   6   70.57    1.57
  -4   7   3   54.27    1.33
  -4   7   3   56.02    1.38
  -4   7   2    5.28    0.45
  -4   7   2    5.43    0.44
  -4   7   1    2.62    0.34
  -4   7   1    2.52    0.27
  -4   7   1    2.82    0.35
  -4   7   0   26.16    1.11
  -4   7   0   24.20    0.83
  -4   7   0   25.91    0.99
  -4   7  -1   23.41    1.06
   4  -7   1   23.48    0.85
  -4   7  -1   21.83    0.96
  -4   7  -1   23.08    1.02
  -4   7  -1   24.44    1.05
  -4   7  -2   98.27    2.37
   4  -7   2   98.70    2.12
  -4   7  -2   91.88    2.33
  -4   7  -2   95.17    2.41
  -4   7  -2   91.76    2.07
  -4   7  -2   94.30    2.15
  -4   7  -2  102.20    2.29
   4  -7   2   94.58    1.93
  -4   7  -3   44.71    1.50
   4  -7   3   46.82    1.39
   4  -7   3   45.20    1.55
  -4   7  -3   44.67    1.56
  -4   7  -3   45.56    1.60
  -4   7  -3   45.01    1.47
  -4   7  -3   44.51    1.35
   4  -7   3   44.22    1.36
   4  -7   4   40.60    1.42
   4  -7   4   43.51    1.36
  -4   7  -4   40.89    1.35
  -4   7  -4   39.34    1.45
  -4   7  -4   38.86    1.46
  -4   7  -4   41.21    1.38
  -4   7  -4   40.86    1.45
  -4   7  -4   38.55    1.16
   4  -7   4   39.24    1.35
  -4   7  -5  100.16    2.28
   4  -7   5  101.10    2.36
  -4   7  -5  107.81    2.39
  -4   7  -5  104.13    2.45
   4  -7   5   97.16    2.22
  -4   7  -5  104.49    2.52
   4  -7   5  104.79    2.40
  -4   7  -6   86.69    1.94
   4  -7   6   83.71    1.95
   4  -7   6   84.16    2.00
  -4   7  -6   89.61    2.07
  -4   7  -6   82.89    1.99
  -4   7  -6   88.39    2.23
   4  -7   6   87.88    2.10
  -4   7  -7   42.42    1.11
   4  -7   7   43.10    1.20
   4  -7   7   42.41    1.19
  -4   7  -7   45.67    1.27
  -4   7  -7   39.17    1.12
  -4   7  -7   43.60    1.38
   4  -7   7   43.35    1.28
   4  -7   8   12.08    0.53
  -4   7  -8   12.13    0.53
  -4   7  -8   11.51    0.57
  -4   6   4   12.30    0.58
  -4   6   4   12.72    0.62
  -4   6   4   13.97    0.65
  -4   6   3    3.12    0.36
  -4   6   3    2.66    0.30
  -4   6   3    2.73    0.34
  -4   6   2   58.56    1.72
  -4   6   2   55.58    1.50
  -4   6   2   58.72    1.76
  -4   6   1   35.84    1.35
  -4   6   1   35.06    1.12
  -4   6   1   38.09    1.21
  -4   6   1   36.77    1.17
  -4   6   1   37.45    1.43
  -4   6   0   12.77    0.78
  -4   6   0   12.78    0.64
  -4   6   0   12.17    0.70
  -4   6   0   11.96    0.74
  -4   6   0   12.04    0.79
  -4   6  -1  127.49    2.78
   4  -6   1  129.30    2.66
  -4   6  -1  116.67    2.73
  -4   6  -1  122.48    2.86
  -4   6  -1  123.33    2.50
  -4   6  -1  121.79    2.50
  -4   6  -1  122.56    2.80
  -4   6  -2   96.12    2.31
  -4   6  -2   93.08    2.44
  -4   6  -2   95.67    2.51
   4  -6   2   95.97    2.28
  -4   6  -2   98.58    2.27
  -4   6  -2   94.49    2.34
   4  -6   2   89.39    2.01
  -4   6  -3  225.19    4.01
   4  -6   3  220.12    4.02
  -4   6  -3  225.70    3.91
  -4   6  -3  229.15    4.42
  -4   6  -3  218.95    4.30
  -4   6  -3  219.64    4.29
  -4   6  -3  219.96    4.08
   4  -6   3  211.35    3.87
  -4   6  -4   11.30    0.70
   4  -6   4   10.58    0.71
   4  -6   4   10.47    0.74
  -4   6  -4   12.36    0.78
  -4   6  -4   11.29    0.81
  -4   6  -4   11.14    0.79
  -4   6  -4   10.94    0.78
  -4   6  -4   11.20    0.78
   4  -6   4   11.03    0.73
   4  -6   5    1.25    0.28
  -4   6  -5    1.39    0.26
   4  -6   5    1.36    0.29
  -4   6  -5    0.99    0.26
  -4   6  -5    1.45    0.31
   4  -6   5    1.47    0.28
  -4   6  -5    1.65    0.31
  -4   6  -5    1.23    0.28
  -4   6  -5    1.86    0.34
  -4   6  -6   21.29    0.91
  -4   6  -6   20.49    1.07
   4  -6   6   20.77    0.98
  -4   6  -6   20.74    1.04
  -4   6  -6   19.71    0.97
  -4   6  -6   20.74    0.99
   4  -6   6   20.66    0.99
   4  -6   6   21.51    1.05
   4  -6   7   17.40    0.83
  -4   6  -7   17.74    0.90
   4  -6   7   16.37    0.83
  -4   6  -7   15.70    0.75
  -4   6  -7   16.79    0.74
  -4   6  -7   16.14    0.91
   4  -6   7   16.26    0.86
  -4   6  -8   20.39    0.68
   4  -6   8   18.69    0.81
   4  -6   8   20.84    0.79
  -4   6  -8   20.29    0.85
  -4   6  -8   17.20    0.58
  -4   6  -8   20.15    0.90
   4  -6   8   20.47    0.84
   4  -6   9    4.63    0.32
  -4   6  -9    4.85    0.33
   4  -6   9    4.47    0.29
  -4   6  -9    4.10    0.31
  -4   5   5    8.74    0.51
  -4   5   5    9.22    0.50
  -4   5   4   14.46    0.77
   4  -5  -4   15.29    0.62
  -4   5   4   15.84    0.80
  -4   5   4   15.67    0.80
  -4   5   3  157.72    3.20
   4  -5  -3  156.44    2.89
  -4   5   3  160.36    3.26
  -4   5   2  153.71    3.20
  -4   5   2  151.42    2.95
   4  -5  -2  158.95    2.94
  -4   5   2  157.06    3.30
  -4   5   1   20.90    0.99
  -4   5   1   19.06    0.86
  -4   5   1   19.36    0.84
   4  -5  -1   21.79    0.88
  -4   5   1   20.60    0.94
  -4   5   1   20.99    1.04
  -4   5   0    2.18    0.32
  -4   5   0    2.19    0.27
   4  -5   0    2.41    0.28
  -4   5   0    2.67    0.35
  -4   5   0    2.65    0.36
  -4   5   0    2.46    0.29
  -4   5   0    2.19    0.26
  -4   5   0    2.17    0.34
  -4   5  -1   45.70    1.43
  -4   5  -1   44.18    1.54
  -4   5  -1   47.82    1.63
  -4   5  -1   44.26    1.35
  -4   5  -1   45.94    1.35
  -4   5  -1   45.48    1.51
  -4   5  -2  184.70    3.36
  -4   5  -2  185.82    3.15
  -4   5  -2  181.81    3.69
  -4   5  -2  186.17    3.78
  -4   5  -2  189.01    3.75
  -4   5  -2  187.87    3.41
   4  -5   2  178.47    3.18
  -4   5  -3   75.60    2.23
  -4   5  -3   80.26    1.93
  -4   5  -3   80.91    1.97
   4  -5   3   81.45    2.10
  -4   5  -3   86.17    2.30
  -4   5  -3   79.46    2.20
  -4   5  -3   80.61    2.07
  -4   5  -4    9.15    0.59
  -4   5  -4   10.14    0.70
   4  -5   4    8.84    0.65
   4  -5   4    8.87    0.65
  -4   5  -4    7.86    0.66
  -4   5  -4    7.97    0.66
  -4   5  -4    8.35    0.66
  -4   5  -4    9.66    0.70
   4  -5   4    8.40    0.61
  -4   5  -5   46.76    1.40
   4  -5   5   46.33    1.56
   4  -5   5   42.86    1.49
  -4   5  -5   44.91    1.58
  -4   5  -5   44.60    1.59
  -4   5  -5   44.40    1.55
  -4   5  -5   43.86    1.54
  -4   5  -5   44.72    1.62
  -4   5  -5   37.80    1.49
   4  -5   5   37.43    1.43
   4  -5   6  150.14    3.22
   4  -5   6  149.88    3.14
  -4   5  -6  151.77    3.30
  -4   5  -6  154.10    3.20
  -4   5  -6  148.69    3.12
  -4   5  -6  145.20    3.10
  -4   5  -6  151.42    3.38
  -4   5  -6  152.14    3.33
   4  -5   6  151.97    3.27
  -4   5  -7  135.56    2.52
   4  -5   7  132.14    2.98
   4  -5   7  137.74    2.88
  -4   5  -7  138.38    3.05
  -4   5  -7  143.96    2.85
  -4   5  -7  137.50    2.75
  -4   5  -7  140.00    3.12
   4  -5   7  142.64    3.06
  -4   5  -8  153.27    2.66
   4  -5   8  156.18    3.09
   4  -5   8  153.84    2.89
  -4   5  -8  159.22    3.13
  -4   5  -8  156.50    3.14
   4  -5   8  157.88    3.06
  -4   5  -9    6.68    0.36
   4  -5   9    7.99    0.51
   4  -5   9    8.89    0.46
  -4   5  -9    8.94    0.53
   4  -5   9    6.79    0.36
   4  -5   9    7.99    0.47
  -4   5  -9    8.10    0.49
  -4   4   6    1.13    0.18
  -4   4   6    0.78    0.14
  -4   4   5    0.72    0.20
  -4   4   5    1.11    0.22
  -4   4   4  115.90    2.74
  -4   4   4  118.57    2.64
  -4   4   4  118.78    2.67
  -4   4   3  407.07    6.41
  -4   4   3  414.11    6.47
  -4   4   2   21.94    1.01
  -4   4   2   24.75    0.98
  -4   4   2   23.59    0.93
  -4   4   2   15.00    0.88
  -4   4   1   10.99    0.67
  -4   4   1   10.60    0.63
  -4   4   1   11.26    0.61
  -4   4   1   11.42    0.62
  -4   4   1   11.31    0.69
  -4   4   1   10.80    0.58
  -4   4   1   10.77    0.71
  -4   4   0    4.10    0.38
  -4   4   0    4.12    0.34
  -4   4   0    4.67    0.34
   4  -4   0    4.26    0.40
  -4   4   0    4.46    0.43
  -4   4   0    4.60    0.45
  -4   4   0    4.71    0.40
  -4   4   0    4.38    0.43
  -4   4  -1  137.26    2.59
   4  -4   1  139.35    2.59
  -4   4  -1  136.17    2.87
  -4   4  -1  139.67    2.83
  -4   4  -1  131.47    2.98
  -4   4  -1  141.02    2.92
  -4   4  -1  133.11    2.62
  -4   4  -1  140.13    2.62
  -4   4  -2  228.45    3.71
  -4   4  -2  233.27    3.62
  -4   4  -2  233.00    4.18
  -4   4  -2  220.32    4.20
  -4   4  -2  242.36    4.20
   4  -4   2  233.22    3.68
  -4   4  -2  239.20    4.23
  -4   4  -2  232.54    3.85
   4  -4   2  226.29    3.62
  -4   4  -3   57.63    1.42
   4  -4   3   57.61    1.38
  -4   4  -3   58.06    1.53
  -4   4  -3   58.99    1.75
  -4   4  -3   53.29    1.73
  -4   4  -3   55.53    1.71
  -4   4  -3   56.87    1.69
  -4   4  -3   56.65    1.58
   4  -4   4    2.41    0.26
  -4   4  -4    2.16    0.35
  -4   4  -4    2.54    0.34
  -4   4  -4    2.71    0.29
  -4   4  -4    2.81    0.36
  -4   4  -4    3.04    0.38
  -4   4  -4    2.29    0.34
  -4   4  -4    2.45    0.35
   4  -4   4    2.05    0.29
   4  -4   5   88.01    1.85
   4  -4   5   85.35    2.20
   4  -4   5   86.60    2.13
  -4   4  -5   86.26    2.24
  -4   4  -5   78.61    2.18
  -4   4  -5   90.15    2.24
  -4   4  -5   87.15    2.17
  -4   4  -5   85.80    2.24
  -4   4  -5   89.98    2.25
   4  -4   5   87.81    2.20
  -4   4  -6  258.11    4.12
   4  -4   6  268.32    4.11
   4  -4   6  264.32    4.64
   4  -4   6  247.30    4.44
  -4   4  -6  253.22    4.66
  -4   4  -6  249.37    4.51
  -4   4  -6  266.40    4.48
  -4   4  -6  261.62    4.43
  -4   4  -6  249.59    4.65
  -4   4  -6  251.12    4.61
   4  -4   6  269.85    4.66
  -4   4  -7  364.82    5.58
   4  -4   7  373.30    5.42
   4  -4   7  359.82    6.01
   4  -4   7  382.79    5.87
  -4   4  -7  370.96    6.08
  -4   4  -7  376.02    5.61
  -4   4  -7  351.05    5.68
   4  -4   7  351.49    5.49
  -4   4  -7  369.54    6.02
   4  -4   7  375.33    6.01
  -4   4  -8    4.92    0.43
   4  -4   8    4.86    0.49
   4  -4   8    4.48    0.42
  -4   4  -8    4.29    0.47
  -4   4  -8    4.23    0.37
   4  -4   8    3.99    0.40
  -4   4  -8    4.43    0.46
   4  -4   8    3.71    0.42
  -4   4  -9    3.23    0.32
   4  -4   9    2.51    0.32
   4  -4   9    3.04    0.30
  -4   4  -9    2.81    0.34
   4  -4   9    2.52    0.31
   4  -4   9    2.80    0.31
  -4   4  -9    2.58    0.29
  -4   4 -10    1.15    0.16
  -4   4 -10    1.20    0.18
   4  -4  10    1.06    0.17
   4  -4  10    0.71    0.15
  -4   3   6   17.26    0.78
  -4   3   6   17.47    0.67
  -4   3   5   70.73    1.96
  -4   3   5   69.45    1.78
  -4   3   4   77.39    2.19
  -4   3   4   79.51    2.06
  -4   3   4   76.11    1.73
  -4   3   4   77.41    2.10
  -4   3   3  207.68    3.84
   4  -3  -3  199.40    3.39
  -4   3   3  201.60    3.40
  -4   3   3  204.89    3.79
  -4   3   2    1.80    0.28
  -4   3   2    0.81    0.19
   4  -3  -2    1.42    0.22
  -4   3   2    1.28    0.25
  -4   3   2    1.07    0.21
  -4   3   2    1.13    0.24
  -4   3   1    5.85    0.44
  -4   3   1    5.83    0.45
  -4   3   1    5.55    0.40
  -4   3   1    6.13    0.49
  -4   3   1    6.06    0.50
  -4   3   1    5.92    0.43
  -4   3   1    5.16    0.44
  -4   3   0   39.33    1.13
  -4   3   0   37.87    1.04
  -4   3   0   42.92    1.16
  -4   3   0   40.57    1.37
  -4   3   0   39.70    1.30
  -4   3   0   39.63    1.15
  -4   3  -1  301.00    4.32
  -4   3  -1  285.85    4.18
   4  -3   1  295.44    4.57
  -4   3  -1  306.96    4.65
  -4   3  -1  280.59    4.81
  -4   3  -1  311.58    4.83
  -4   3  -1  304.65    4.50
  -4   3  -1  297.33    4.46
  -4   3  -2  199.01    3.13
  -4   3  -2  206.43    3.07
   4  -3   2  204.03    3.36
  -4   3  -2  199.88    3.66
  -4   3  -2  208.16    3.12
  -4   3  -2  210.74    3.66
  -4   3  -2  207.13    3.59
  -4   3  -2  200.31    3.36
   4  -3   3   20.12    0.76
  -4   3  -3   20.18    0.92
  -4   3  -3   19.73    0.88
  -4   3  -3   21.48    0.89
  -4   3  -3   21.51    0.82
  -4   3  -3   20.51    0.83
   4  -3   3   20.43    0.78
   4  -3   4  145.26    2.62
  -4   3  -4  148.57    2.84
   4  -3   4  145.23    2.38
  -4   3  -4  132.72    2.85
  -4   3  -4  143.71    2.77
  -4   3  -4  143.63    2.79
  -4   3  -4  150.90    2.87
   4  -3   4  138.05    2.77
  -4   3  -4  149.54    2.81
   4  -3   4  147.98    2.76
  -4   3  -5   67.06    1.48
   4  -3   5   65.70    1.78
   4  -3   5   67.91    1.63
   4  -3   5   66.91    1.68
  -4   3  -5   65.61    1.81
  -4   3  -5   60.55    1.76
  -4   3  -5   65.17    1.59
  -4   3  -5   65.91    1.70
  -4   3  -5   69.28    1.78
  -4   3  -5   69.65    1.83
   4  -3   5   65.12    1.39
  -4   3  -5   65.77    1.76
   4  -3   5   68.75    1.79
  -4   3  -6  105.14    2.22
   4  -3   6  109.15    2.30
   4  -3   6  106.95    2.50
   4  -3   6  109.38    2.36
  -4   3  -6  105.36    2.53
  -4   3  -6  103.39    2.41
  -4   3  -6  113.28    2.37
  -4   3  -6  110.90    2.31
   4  -3   6  107.05    2.17
  -4   3  -6  111.04    2.52
   4  -3   6  103.23    2.20
  -4   3  -6  105.97    2.44
   4  -3   6  109.87    2.50
  -4   3  -7   17.44    0.84
   4  -3   7   18.58    0.86
   4  -3   7   20.43    1.01
   4  -3   7   18.08    0.87
  -4   3  -7   18.28    0.98
  -4   3  -7   19.77    0.90
  -4   3  -7   19.65    0.80
   4  -3   7   20.30    0.85
   4  -3   7   18.86    0.88
  -4   3  -7   18.81    0.93
   4  -3   7   18.40    0.94
  -4   3  -8    2.08    0.32
   4  -3   8    2.29    0.35
   4  -3   8    1.84    0.28
  -4   3  -8    1.90    0.34
  -4   3  -8    2.40    0.28
   4  -3   8    1.90    0.27
   4  -3   8    1.76    0.30
  -4   3  -8    2.57    0.34
   4  -3   8    1.88    0.31
  -4   3  -9    2.69    0.33
   4  -3   9    2.45    0.34
   4  -3   9    3.00    0.31
  -4   3  -9    2.40    0.33
   4  -3   9    2.37    0.29
   4  -3   9    2.30    0.33
   4  -3   9    2.72    0.32
  -4   3  -9    2.52    0.28
   4  -3  10   24.02    0.72
  -4   3 -10   24.67    0.86
   4  -3  10   23.75    0.85
  -4   3 -10   25.87    0.89
   4  -3  10   23.22    0.74
   4  -3  10   23.46    0.95
  -4   2   7   36.19    0.96
   4  -2  -6   21.95    0.78
  -4   2   6   22.37    0.95
  -4   2   6   21.29    0.77
  -4   2   6   21.27    0.78
  -4   2   5    5.71    0.55
   4  -2  -5    5.92    0.49
  -4   2   5    6.51    0.47
  -4   2   5    5.92    0.47
  -4   2   5    6.01    0.48
  -4   2   4   17.14    0.97
   4  -2  -4   18.62    0.91
  -4   2   4   18.04    0.85
  -4   2   4   16.57    0.83
  -4   2   4   17.01    0.91
  -4   2   3   16.42    0.91
   4  -2  -3   15.57    0.83
  -4   2   3   16.86    0.80
  -4   2   3   16.09    0.80
  -4   2   3   15.13    0.80
  -4   2   2  194.05    3.44
  -4   2   2  192.89    3.59
  -4   2   2  199.20    3.39
   4  -2  -2  204.44    3.57
  -4   2   2  202.75    3.32
  -4   2   2  203.17    3.48
  -4   2   2  195.40    3.35
  -4   2   1    2.08    0.25
  -4   2   1    2.00    0.22
   4  -2  -1    2.28    0.27
  -4   2   1    1.73    0.24
  -4   2   1    2.21    0.28
  -4   2   1    2.09    0.23
  -4   2   1    2.62    0.28
  -4   2   1    1.89    0.24
  -4   2   0  130.07    2.17
   4  -2   0  133.14    2.41
  -4   2   0  153.97    2.37
  -4   2   0  146.02    2.43
  -4   2   0  138.33    2.39
  -4   2   0  142.32    2.72
  -4   2   0  141.49    2.45
  -4   2  -1   24.30    0.79
  -4   2  -1   23.25    0.73
  -4   2  -1   23.38    0.71
   4  -2   1   26.08    0.87
  -4   2  -1   26.21    0.86
   4  -2   1   24.83    0.69
  -4   2  -1   23.46    0.77
  -4   2  -1   23.81    0.92
   4  -2   1   25.61    0.78
   4  -2   1   25.86    0.90
  -4   2  -2  228.37    3.47
  -4   2  -2  219.62    3.28
   4  -2   2  231.19    3.57
   4  -2   2  225.97    3.24
  -4   2  -2  221.42    3.18
   4  -2   2  223.14    3.51
  -4   2  -2  234.25    3.72
  -4   2  -2  225.19    3.37
  -4   2  -2  220.86    3.71
  -4   2  -2  220.90    3.64
   4  -2   2  229.03    3.35
  -4   2  -3  129.07    2.31
  -4   2  -3  127.43    2.12
   4  -2   3  132.62    2.35
   4  -2   3  133.88    2.36
   4  -2   3  125.33    2.06
  -4   2  -3  137.54    2.37
   4  -2   3  128.45    2.19
   4  -2   3  127.81    2.30
  -4   2  -3  123.55    2.48
  -4   2  -3  125.25    2.18
  -4   2  -3  123.71    2.44
  -4   2  -3  132.01    2.42
  -4   2  -4   16.53    0.75
   4  -2   4   16.88    0.65
  -4   2  -4   16.05    0.76
  -4   2  -4   16.68    0.71
  -4   2  -4   17.53    0.72
   4  -2   4   17.14    0.70
  -4   2  -4   18.03    0.73
   4  -2   4   16.92    0.71
  -4   2  -5    2.04    0.23
   4  -2   5    2.13    0.27
   4  -2   5    3.36    0.34
   4  -2   5    2.25    0.25
  -4   2  -5    1.86    0.28
  -4   2  -5    1.97    0.23
  -4   2  -5    2.01    0.24
  -4   2  -5    2.10    0.28
  -4   2  -5    1.88    0.28
   4  -2   5    2.36    0.25
  -4   2  -5    2.24    0.28
   4  -2   5    1.90    0.28
  -4   2  -6    7.35    0.50
   4  -2   6    7.29    0.54
   4  -2   6    7.79    0.50
  -4   2  -6    6.69    0.55
  -4   2  -6    6.57    0.51
  -4   2  -6    7.66    0.48
  -4   2  -6    7.47    0.46
   4  -2   6    7.60    0.51
  -4   2  -6    7.47    0.52
   4  -2   6    7.90    0.56
   4  -2   6    7.76    0.54
  -4   2  -7   18.94    0.89
   4  -2   7   18.97    0.92
   4  -2   7   19.22    0.93
   4  -2   7   20.15    0.86
  -4   2  -7   19.19    0.98
  -4   2  -7   18.92    0.85
  -4   2  -7   19.27    0.72
   4  -2   7   18.12    0.87
   4  -2   7   20.13    0.94
  -4   2  -7   19.11    0.87
   4  -2   7   20.30    0.94
   4  -2   7   20.15    0.95
  -4   2  -8  156.50    3.11
   4  -2   8  147.80    3.10
   4  -2   8  151.31    2.86
  -4   2  -8  147.92    3.20
  -4   2  -8  153.83    2.73
   4  -2   8  146.18    3.02
   4  -2   8  149.45    3.18
   4  -2   8  148.72    3.11
   4  -2   8  154.61    3.08
  -4   2  -8  141.92    2.76
   4  -2   8  148.36    3.16
  -4   2  -9  102.89    2.37
   4  -2   9  100.72    2.31
   4  -2   9  103.03    2.05
  -4   2  -9  101.76    2.40
   4  -2   9   98.55    2.31
   4  -2   9  100.07    2.52
   4  -2   9   99.83    2.21
   4  -2  10   28.48    0.93
  -4   2 -10   29.40    1.03
   4  -2  10   27.46    0.94
  -4   2 -10   28.22    0.98
   4  -2  10   26.70    0.97
   4  -2  10   26.61    1.11
   4  -2  11   37.22    0.84
  -4   2 -11   40.70    1.00
   4  -2  11   40.27    1.15
  -4   1   7    6.48    0.41
   4  -1  -7    6.23    0.36
  -4   1   7    6.84    0.39
  -4   1   6    0.78    0.22
   4  -1  -6    0.80    0.20
  -4   1   6    0.62    0.16
  -4   1   6    0.74    0.15
  -4   1   5   10.59    0.74
   4  -1  -5   10.10    0.55
  -4   1   5   10.28    0.67
  -4   1   5   10.83    0.59
  -4   1   4    5.87    0.56
   4  -1  -4    6.25    0.45
  -4   1   4    6.61    0.54
  -4   1   4    5.65    0.44
  -4   1   3  247.92    4.34
   4  -1  -3  237.13    3.78
  -4   1   3  251.99    4.18
  -4   1   3  250.13    4.12
  -4   1   3  244.57    3.95
  -4   1   3  241.11    4.13
  -4   1   3  237.69    4.10
  -4   1   2  279.04    4.44
  -4   1   2  293.17    4.67
  -4   1   2  286.08    4.38
  -4   1   2  286.94    4.52
  -4   1   1   23.41    0.79
   4  -1  -1   22.69    0.79
  -4   1   1   21.86    0.64
   4  -1  -1   23.83    0.91
  -4   1   1   23.55    0.83
  -4   1   1   24.18    0.83
  -4   1   1   22.38    0.89
  -4   1   1   22.31    0.79
  -4   1   1   23.20    0.75
   4  -1   0   13.08    0.55
  -4   1   0   12.92    0.57
   4  -1   0   12.40    0.54
  -4   1   0   12.47    0.54
   4  -1   0   12.98    0.59
  -4   1   0   12.61    0.49
   4  -1   0   12.15    0.57
  -4   1   0   13.02    0.45
  -4   1   0   13.61    0.60
  -4   1   0   12.81    0.61
  -4   1   0   13.05    0.64
   4  -1   1  105.86    1.92
  -4   1  -1  106.37    1.93
   4  -1   1  105.45    1.92
  -4   1  -1  101.25    1.87
  -4   1  -1   99.43    1.82
   4  -1   1  102.08    1.84
   4  -1   1  106.15    1.93
   4  -1   1  106.74    1.95
  -4   1  -1  105.31    1.90
  -4   1  -1   97.41    1.87
  -4   1  -1  102.58    2.03
  -4   1  -1  103.76    2.03
   4  -1   2  220.64    3.32
   4  -1   2  226.68    3.38
  -4   1  -2  223.32    3.37
  -4   1  -2  217.03    3.27
  -4   1  -2  211.57    3.29
   4  -1   2  218.10    3.24
   4  -1   2  223.12    3.34
  -4   1  -2  234.59    3.49
  -4   1  -2  212.15    3.30
  -4   1  -2  217.30    3.47
  -4   1  -2  228.20    3.43
   4  -1   2  220.86    3.43
   4  -1   3  443.37    5.96
  -4   1  -3  436.69    6.00
  -4   1  -3  449.83    5.92
   4  -1   3  443.82    5.86
   4  -1   3  437.79    6.03
  -4   1  -3  462.20    5.99
   4  -1   3  438.69    5.93
   4  -1   3  449.76    5.91
  -4   1  -3  424.06    6.11
  -4   1  -3  428.98    5.91
  -4   1  -3  413.48    6.02
  -4   1  -3  426.28    5.96
  -4   1  -4   63.79    1.46
   4  -1   4   63.23    1.45
   4  -1   4   65.17    1.48
   4  -1   4   63.77    1.30
  -4   1  -4   64.01    1.48
   4  -1   4   64.86    1.41
   4  -1   4   58.84    1.30
  -4   1  -4   59.50    1.50
  -4   1  -4   62.30    1.21
  -4   1  -4   67.12    1.43
  -4   1  -4   62.86    1.36
  -4   1  -5    9.79    0.50
   4  -1   5   10.63    0.58
   4  -1   5   10.63    0.55
  -4   1  -5   10.10    0.51
   4  -1   5   10.28    0.48
  -4   1  -5    9.20    0.57
   4  -1   5   10.75    0.57
  -4   1  -5   10.60    0.59
  -4   1  -5   10.53    0.49
  -4   1  -5    9.70    0.47
   4  -1   5   10.17    0.50
   4  -1   5    9.83    0.56
  -4   1  -6  158.60    2.98
   4  -1   6  168.36    3.14
   4  -1   6  169.29    3.03
   4  -1   6  168.85    2.85
  -4   1  -6  163.01    3.18
  -4   1  -6  163.96    3.04
  -4   1  -6  177.76    2.83
   4  -1   6  171.98    3.09
  -4   1  -6  165.39    2.81
   4  -1   6  173.35    3.09
   4  -1   6  165.40    3.11
  -4   1  -7  361.70    5.66
   4  -1   7  361.35    5.56
   4  -1   7  373.26    5.33
   4  -1   7  363.21    5.77
  -4   1  -7  354.90    5.42
   4  -1   7  354.87    5.70
   4  -1   7  370.19    5.68
   4  -1   7  356.19    5.67
  -4   1  -8  184.29    3.59
   4  -1   8  182.76    3.65
  -4   1  -8  170.68    3.11
   4  -1   8  183.38    3.43
  -4   1  -8  186.89    3.65
  -4   1  -8  184.04    3.10
   4  -1   8  184.80    3.59
   4  -1   8  179.09    3.66
   4  -1   8  191.54    3.48
   4  -1   8  181.39    3.66
   4  -1   9   24.64    0.99
  -4   1  -9   24.84    1.10
  -4   1  -9   21.64    0.84
   4  -1   9   23.47    0.96
  -4   1  -9   24.48    1.06
   4  -1   9   22.06    1.05
   4  -1   9   25.31    1.19
   4  -1   9   24.95    0.96
   4  -1  10    1.05    0.20
  -4   1 -10    0.84    0.20
   4  -1  10    0.82    0.17
  -4   1 -10    1.01    0.20
   4  -1  10    0.87    0.21
   4  -1  10    0.75    0.23
   4  -1  11   10.56    0.49
  -4   1 -11   10.72    0.52
  -4   1 -11   10.81    0.42
   4  -1  11   10.11    0.52
   4  -1  11   10.61    0.60
   4   0  -7   66.53    1.54
  -4   0   7   63.61    1.46
  -4   0   7   66.47    1.56
  -4   0   6   11.32    0.69
   4   0  -6   10.95    0.58
   4   0  -6   12.17    0.74
  -4   0   6   10.99    0.69
  -4   0   5   29.34    1.22
   4   0  -5   28.14    1.05
  -4   0   5   28.86    1.22
  -4   0   5   29.06    0.91
  -4   0   4  175.26    3.47
   4   0  -4  172.77    3.22
  -4   0   4  170.20    3.42
  -4   0   4  172.62    3.06
  -4   0   4  164.07    2.89
   4   0  -3  314.75    4.82
  -4   0   3  324.85    4.96
  -4   0   3  314.76    5.05
  -4   0   3  311.07    4.56
  -4   0   3  306.10    5.01
  -4   0   2   67.65    1.65
   4   0  -2   71.09    1.56
  -4   0   2   72.00    1.74
  -4   0   2   68.85    1.38
  -4   0   2   66.62    1.55
  -4   0   1   11.06    0.55
   4   0  -1   10.26    0.54
  -4   0   1    9.85    0.44
   4   0  -1   10.82    0.44
   4   0  -1   11.32    0.62
   4   0  -1   12.18    0.58
  -4   0   1   11.85    0.59
  -4   0   1   11.19    0.51
  -4   0   1   11.01    0.59
   4   0   0    2.05    0.23
  -4   0   0    1.06    0.18
  -4   0   0    1.38    0.19
  -4   0   0    1.38    0.17
   4   0   0    1.36    0.20
   4   0   0    1.20    0.18
  -4   0   0    1.18    0.17
  -4   0   0    1.32    0.18
  -4   0   0    1.18    0.19
  -4   0   0    1.37    0.21
  -4   0  -1  168.38    2.81
   4   0   1  174.60    2.82
  -4   0  -1  180.42    2.81
  -4   0  -1  172.74    2.74
   4   0   1  175.29    2.79
   4   0   1  184.33    2.88
   4   0   1  172.37    2.79
  -4   0  -1  188.40    2.72
  -4   0  -1  185.93    2.92
  -4   0  -1  179.95    2.83
  -4   0  -1  183.87    2.91
   4   0   2  365.05    4.98
  -4   0  -2  357.96    5.00
  -4   0  -2  366.70    4.95
  -4   0  -2  356.38    4.93
   4   0   2  363.12    4.93
   4   0   2  359.09    4.98
   4   0   2  364.06    4.89
  -4   0  -2  353.39    5.01
   4   0   2  350.75    5.03
  -4   0  -2  368.52    5.08
  -4   0  -2  361.73    4.98
  -4   0  -2  356.95    4.96
   4   0   3   73.46    1.42
  -4   0  -3   67.77    1.44
  -4   0  -3   66.35    1.37
   4   0   3   69.36    1.38
  -4   0  -3   69.65    1.37
   4   0   3   67.45    1.42
   4   0   3   66.54    1.28
  -4   0  -3   71.66    1.51
   4   0   3   66.77    1.44
  -4   0  -3   67.61    1.44
  -4   0  -3   68.89    1.31
   4   0   4   29.81    0.83
  -4   0  -4   29.86    0.91
   4   0   4   31.79    0.93
   4   0   4   29.85    0.85
  -4   0  -4   30.76    0.93
   4   0   4   29.95    0.90
  -4   0  -4   30.81    0.88
   4   0   4   29.21    0.73
  -4   0  -4   28.69    0.93
  -4   0  -4   28.89    0.81
  -4   0  -4   31.35    0.88
  -4   0  -4   31.30    0.78
   4   0   4   29.18    0.63
  -4   0  -5   77.44    1.72
   4   0   5   78.12    1.65
   4   0   5   75.85    1.75
  -4   0  -5   79.19    1.68
  -4   0  -5   73.39    1.76
   4   0   5   80.55    1.76
   4   0   5   76.38    1.37
  -4   0  -5   80.51    1.79
  -4   0  -5   79.99    1.52
  -4   0  -5   79.31    1.35
   4   0   5   77.05    1.59
   4   0   6  371.28    5.74
   4   0   6  377.86    5.42
   4   0   6  373.11    5.12
  -4   0  -6  359.56    5.73
  -4   0  -6  366.55    5.56
   4   0   6  396.04    5.67
   4   0   6  369.76    5.62
   4   0   6  404.16    5.71
   4   0   7  310.28    5.19
  -4   0  -7  302.17    5.14
  -4   0  -7  309.14    4.79
   4   0   7  314.01    4.80
   4   0   7  317.01    5.15
   4   0   7  304.95    4.93
   4   0   7  309.67    5.08
  -4   0  -7  328.01    5.15
  -4   0  -8    4.61    0.49
   4   0   8    4.26    0.49
   4   0   8    4.35    0.40
  -4   0  -8    4.83    0.49
   4   0   8    4.99    0.50
   4   0   8    4.12    0.47
   4   0   8    4.57    0.43
  -4   0  -8    4.74    0.37
   4   0   8    4.39    0.48
   4   0   9    3.29    0.38
  -4   0  -9    3.73    0.44
   4   0   9    3.23    0.33
  -4   0  -9    3.80    0.43
   4   0   9    3.25    0.42
   4   0   9    3.92    0.36
   4   0   9    3.75    0.46
   4   0  10    9.88    0.62
  -4   0 -10   10.23    0.66
  -4   0 -10    9.20    0.54
  -4   0 -10   10.52    0.60
   4   0  10   10.86    0.69
   4   0  10    9.52    0.69
   4   0  11   41.53    1.12
  -4   0 -11   42.43    1.13
  -4   0 -11   39.97    0.90
   4   0  11   39.61    1.14
   4   0  11   40.55    1.23
  -4  -1   7   33.18    0.95
   4   1  -7   35.81    1.10
  -4  -1   7   33.78    0.98
  -4  -1   7   34.10    1.10
  -4  -1   6   34.54    1.20
   4   1  -6   32.13    1.11
  -4  -1   6   34.32    1.29
   4   1  -5    1.59    0.27
  -4  -1   5    1.19    0.26
  -4  -1   5    1.31    0.29
   4   1  -4  212.23    3.82
  -4  -1   4  202.30    3.94
  -4  -1   4  212.65    3.38
  -4  -1   4  211.49    3.60
  -4  -1   4  206.88    3.98
   4   1  -3   79.82    1.92
  -4  -1   3   76.97    2.00
  -4  -1   3   79.81    1.90
  -4  -1   3   79.86    1.64
  -4  -1   3   79.40    1.98
  -4  -1   3   78.59    1.96
   4   1  -2    1.68    0.24
  -4  -1   2    1.92    0.26
  -4  -1   2    1.73    0.24
  -4  -1   2    2.46    0.29
  -4  -1   1    5.16    0.39
   4   1  -1    5.21    0.39
   4   1  -1    5.28    0.38
  -4  -1   1    5.38    0.33
  -4  -1   1    5.06    0.39
  -4  -1   1    5.37    0.37
   4   1  -1    5.09    0.30
  -4  -1   1    5.75    0.42
  -4  -1   0  104.34    1.98
   4   1   0  104.32    1.98
  -4  -1   0  102.41    1.94
  -4  -1   0  100.45    1.87
   4   1   0  105.28    1.75
   4   1   0  104.49    2.05
   4   1   0  104.34    1.95
  -4  -1   0  104.99    1.91
  -4  -1   0  112.10    1.97
  -4  -1   0  105.50    1.98
   4   1   0  104.57    1.81
  -4  -1   0  107.52    2.04
  -4  -1  -1  381.21    5.12
   4   1   1  362.44    5.06
  -4  -1  -1  369.75    5.04
  -4  -1  -1  352.35    4.98
   4   1   1  367.17    5.05
   4   1   1  345.49    5.09
   4   1   1  374.71    5.01
  -4  -1  -1  378.16    4.86
  -4  -1  -1  357.40    4.91
  -4  -1  -1  372.58    5.13
  -4  -1  -1  370.21    5.08
   4   1   1  346.18    4.98
  -4  -1  -1  379.63    5.13
  -4  -1  -2  249.18    3.62
   4   1   2  239.76    3.56
  -4  -1  -2  247.77    3.56
  -4  -1  -2  238.33    3.52
   4   1   2  249.42    3.59
   4   1   2  242.03    3.55
   4   1   2  246.77    3.62
   4   1   2  235.50    3.40
  -4  -1  -2  240.57    3.57
  -4  -1  -2  256.55    3.69
  -4  -1  -2  247.38    3.60
  -4  -1  -2  246.76    3.54
   4   1   3  135.96    2.18
  -4  -1  -3  136.80    2.29
  -4  -1  -3  129.57    2.18
   4   1   3  139.61    2.28
   4   1   3  128.29    2.21
   4   1   3  137.99    2.29
   4   1   3  135.91    2.02
  -4  -1  -3  135.88    2.33
  -4  -1  -3  136.21    2.32
   4   1   4   83.32    1.51
  -4  -1  -4   81.05    1.63
  -4  -1  -4   82.86    1.63
   4   1   4   78.19    1.64
   4   1   4   78.09    1.57
   4   1   4   80.41    1.35
   4   1   4   83.15    1.67
   4   1   4   80.79    1.27
  -4  -1  -4   78.53    1.70
  -4  -1  -4   80.94    1.61
  -4  -1  -4   79.34    1.50
   4   1   5   56.23    1.14
  -4  -1  -5   52.25    1.33
   4   1   5   56.99    1.43
   4   1   5   55.21    1.14
  -4  -1  -5   58.32    1.39
  -4  -1  -5   57.05    1.45
   4   1   5   56.86    1.43
  -4  -1  -5   54.09    1.41
  -4  -1  -5   56.57    1.21
  -4  -1  -5   52.22    1.12
   4   1   6  130.91    2.18
   4   1   6  127.36    2.24
   4   1   6  129.24    2.64
   4   1   6  126.85    2.21
  -4  -1  -6  133.64    2.67
  -4  -1  -6  131.26    2.53
   4   1   6  132.99    2.54
   4   1   6  130.24    2.54
   4   1   7    1.17    0.22
   4   1   7    1.29    0.23
   4   1   7    1.09    0.17
  -4  -1  -7    1.37    0.27
  -4  -1  -7    1.15    0.21
   4   1   7    1.28    0.25
   4   1   7    1.27    0.24
   4   1   8    1.23    0.23
  -4  -1  -8    0.87    0.23
  -4  -1  -8    0.88    0.24
  -4  -1  -8    1.08    0.19
   4   1   8    0.70    0.21
   4   1   8    1.36    0.29
   4   1   8    0.50    0.19
   4   1   8    1.16    0.22
   4   1   9   11.30    0.73
  -4  -1  -9   11.24    0.71
  -4  -1  -9   10.38    0.75
   4   1   9   10.58    0.74
   4   1   9   11.65    0.60
   4   1   9   10.88    0.77
   4   1  10  111.32    2.46
  -4  -1 -10  111.20    2.49
  -4  -1 -10  106.72    2.29
  -4  -1 -10  114.54    2.29
   4   1  10  105.49    2.47
   4   1  10  110.86    2.59
   4   1  11   61.14    1.45
  -4  -1 -11   61.15    1.42
   4   1  11   57.73    1.43
   4   1  11   59.82    1.49
  -4  -2   7    0.71    0.13
   4   2  -7    0.50    0.14
   4   2  -7    0.71    0.16
  -4  -2   7    0.68    0.18
  -4  -2   6    0.67    0.17
  -4  -2   6    0.47    0.13
  -4  -2   6    0.71    0.22
  -4  -2   5   49.70    1.53
   4   2  -5   49.34    1.57
  -4  -2   5   47.11    1.36
  -4  -2   5   46.40    1.58
  -4  -2   5   48.92    1.70
  -4  -2   5   47.90    1.27
   4   2  -4   41.81    1.43
  -4  -2   4   39.43    1.42
  -4  -2   4   40.74    1.25
  -4  -2   4   41.73    1.30
  -4  -2   4   38.62    1.45
   4   2  -3   96.90    2.25
  -4  -2   3   95.20    2.23
  -4  -2   3   98.13    2.17
  -4  -2   3   92.43    2.22
  -4  -2   3   96.11    2.05
  -4  -2   3   90.44    2.15
  -4  -2   2   70.09    1.69
   4   2  -2   70.11    1.75
  -4  -2   2   74.26    1.60
  -4  -2   2   73.13    1.73
   4   2  -2   69.62    1.52
  -4  -2   2   76.53    1.80
  -4  -2   2   73.00    1.74
  -4  -2   1   11.81    0.59
   4   2  -1   12.19    0.60
   4   2  -1   10.03    0.54
  -4  -2   1   11.34    0.53
  -4  -2   1   11.37    0.50
  -4  -2   1   11.29    0.57
   4   2  -1   10.86    0.53
   4   2  -1   11.61    0.58
  -4  -2   1   11.26    0.60
  -4  -2   0  530.59    7.19
   4   2   0  530.00    7.17
  -4  -2   0  567.86    7.17
   4   2   0  509.74    7.07
   4   2   0  519.84    7.24
  -4  -2   0  538.60    6.78
   4   2   0  557.92    7.16
  -4  -2   0  547.82    7.05
  -4  -2   0  512.46    7.06
  -4  -2   0  559.14    7.19
   4   2   0  509.27    7.08
  -4  -2   0  503.17    7.23
  -4  -2  -1  347.95    4.81
   4   2   1  340.34    4.76
  -4  -2  -1  349.27    4.77
   4   2   1  341.74    4.71
   4   2   1  347.43    4.78
   4   2   1  333.52    4.81
   4   2   1  336.83    4.69
   4   2   1  341.26    4.66
  -4  -2  -1  344.49    4.60
  -4  -2  -1  333.69    4.82
  -4  -2  -1  347.72    4.80
   4   2   1  321.60    4.77
  -4  -2  -1  339.09    4.84
  -4  -2  -2   25.54    0.77
   4   2   2   27.28    0.77
  -4  -2  -2   27.17    0.78
  -4  -2  -2   25.63    0.75
   4   2   2   26.89    0.75
   4   2   2   27.30    0.78
   4   2   2   26.63    0.71
   4   2   2   27.62    0.69
   4   2   2   29.00    0.83
  -4  -2  -2   28.54    0.82
   4   2   2   27.66    0.82
  -4  -2  -2   29.33    0.80
  -4  -2  -2   27.35    0.85
   4   2   3   44.15    0.96
   4   2   3   38.72    0.95
  -4  -2  -3   40.17    1.00
  -4  -2  -3   42.10    0.97
   4   2   3   40.54    1.00
   4   2   3   40.83    0.75
   4   2   3   41.49    1.04
  -4  -2  -3   42.09    1.09
   4   2   3   40.85    0.99
   4   2   4    1.35    0.15
   4   2   4    1.85    0.21
  -4  -2  -4    1.35    0.18
  -4  -2  -4    2.03    0.19
   4   2   4    1.18    0.16
   4   2   4    1.36    0.19
  -4  -2  -4    1.50    0.21
  -4  -2  -4    1.63    0.20
   4   2   4    1.33    0.15
   4   2   5    5.56    0.27
  -4  -2  -5    5.26    0.36
   4   2   5    5.44    0.41
  -4  -2  -5    5.02    0.37
   4   2   5    5.57    0.41
  -4  -2  -5    6.00    0.43
  -4  -2  -5    6.00    0.36
   4   2   5    5.38    0.26
  -4  -2  -5    5.40    0.29
   4   2   6   54.02    1.30
   4   2   6   57.82    1.59
   4   2   6   55.62    1.38
  -4  -2  -6   55.78    1.48
   4   2   6   55.84    1.48
   4   2   6   57.98    1.49
   4   2   7   27.64    1.02
   4   2   7   27.97    0.94
   4   2   7   27.12    1.15
  -4  -2  -7   27.32    1.13
  -4  -2  -7   28.09    0.99
   4   2   7   27.15    1.03
   4   2   7   28.13    1.09
   4   2   8  139.06    2.94
   4   2   8  145.58    2.60
  -4  -2  -8  145.99    3.06
  -4  -2  -8  147.28    2.58
   4   2   8  140.51    3.07
   4   2   8  142.10    2.76
   4   2   8  144.41    3.07
   4   2   9  101.19    2.48
  -4  -2  -9  105.67    2.57
  -4  -2  -9  104.97    2.41
   4   2   9  103.66    2.53
   4   2   9  103.71    2.54
   4   2  10   48.85    1.53
  -4  -2 -10   50.65    1.52
  -4  -2 -10   49.84    1.34
   4   2  10   46.78    1.47
   4   2  10   45.87    1.47
   4   2  11   24.44    0.86
  -4  -2 -11   23.42    0.81
  -4  -2 -11   21.84    0.74
   4   2  11   23.72    0.81
   4   2  11   22.30    0.76
   4   3  -7    3.87    0.32
   4   3  -7    3.99    0.34
  -4  -3   7    3.80    0.35
  -4  -3   6   37.43    1.12
  -4  -3   6   33.66    1.12
   4   3  -6   36.99    1.25
  -4  -3   6   34.17    1.21
  -4  -3   6   36.13    1.28
   4   3  -5   88.79    2.25
  -4  -3   5   85.55    2.21
  -4  -3   5   89.70    2.12
  -4  -3   5   92.50    1.96
  -4  -3   5   86.57    2.37
   4   3  -4   48.63    1.60
  -4  -3   4   49.00    1.50
  -4  -3   4   49.29    1.58
  -4  -3   4   48.91    1.45
  -4  -3   4   49.64    1.67
   4   3  -3  162.90    2.71
   4   3  -3  161.46    3.28
  -4  -3   3  165.50    3.13
   4   3  -3  160.02    2.87
  -4  -3   3  164.13    3.12
  -4  -3   3  156.60    3.16
  -4  -3   3  153.49    3.03
  -4  -3   3  162.27    3.04
  -4  -3   2   84.00    1.87
   4   3  -2   85.52    1.67
   4   3  -2   83.16    2.03
  -4  -3   2   85.47    1.89
  -4  -3   2   87.23    1.90
  -4  -3   2   85.40    2.02
   4   3  -2   83.44    1.87
  -4  -3   2   84.02    1.93
   4   3  -1  109.21    2.11
   4   3  -1  106.16    1.89
   4   3  -1  105.44    2.23
   4   3  -1  111.21    2.27
  -4  -3   1  105.79    1.97
  -4  -3   1  107.00    2.11
   4   3  -1  105.45    2.16
  -4  -3   1  111.38    2.29
  -4  -3   1  109.53    1.99
  -4  -3   0   23.09    0.82
   4   3   0   23.51    0.79
  -4  -3   0   22.49    0.75
   4   3   0   21.69    0.66
   4   3   0   23.77    0.84
   4   3   0   21.70    0.74
   4   3   0   23.08    0.82
  -4  -3   0   21.61    0.71
  -4  -3   0   23.54    0.78
  -4  -3   0   22.64    0.78
   4   3   0   23.32    0.85
  -4  -3   0   22.82    0.86
  -4  -3  -1   86.35    1.69
   4   3   1   86.38    1.65
  -4  -3  -1   92.63    1.69
   4   3   1   82.22    1.69
   4   3   1   84.12    1.64
   4   3   1   83.96    1.47
   4   3   1   78.09    1.53
   4   3   1   86.88    1.71
  -4  -3  -1   83.20    1.51
  -4  -3  -1   85.00    1.75
  -4  -3  -1   83.95    1.65
   4   3   1   88.29    1.79
  -4  -3  -1   90.12    1.79
  -4  -3  -2    2.87    0.24
   4   3   2    2.92    0.23
   4   3   2    3.13    0.27
  -4  -3  -2    2.96    0.25
   4   3   2    3.11    0.26
   4   3   2    2.93    0.25
  -4  -3  -2    3.32    0.18
  -4  -3  -2    3.13    0.29
   4   3   2    2.57    0.23
  -4  -3  -2    3.28    0.27
   4   3   2    2.85    0.27
  -4  -3  -2    3.16    0.27
  -4  -3  -3   31.93    0.84
  -4  -3  -3   31.37    0.88
  -4  -3  -3   31.54    0.82
   4   3   3   29.36    0.80
   4   3   3   32.14    0.86
   4   3   3   30.98    0.88
  -4  -3  -3   32.60    0.99
   4   3   3   32.20    0.90
   4   3   3   30.16    0.86
   4   3   3   31.79    0.93
  -4  -3  -3   31.78    0.74
   4   3   4   50.47    0.96
  -4  -3  -4   49.22    1.10
  -4  -3  -4   46.15    1.00
   4   3   4   49.01    1.20
   4   3   4   47.86    1.11
   4   3   4   50.49    1.23
  -4  -3  -4   51.44    1.28
   4   3   4   48.36    1.10
  -4  -3  -5  213.19    3.10
   4   3   5  202.01    3.46
   4   3   5  210.46    3.48
   4   3   5  212.83    3.51
  -4  -3  -5  207.34    3.33
   4   3   5  214.09    3.49
   4   3   5  217.30    3.37
   4   3   6  173.97    2.98
   4   3   6  167.31    3.00
   4   3   6  161.85    3.12
  -4  -3  -6  162.50    3.07
   4   3   6  165.85    3.06
   4   3   6  174.63    3.03
   4   3   7  251.02    4.26
   4   3   7  255.28    4.14
  -4  -3  -7  255.19    4.14
   4   3   7  244.56    4.33
   4   3   7  253.61    4.21
   4   3   7  263.89    4.29
   4   3   8  105.38    2.49
   4   3   8  101.58    2.16
  -4  -3  -8  106.85    2.05
   4   3   8   95.25    2.39
   4   3   8   96.38    2.13
  -4  -3  -8  103.78    2.45
   4   3   8  103.16    2.40
   4   3   9   13.31    0.82
   4   3   9   14.12    0.62
  -4  -3  -9   13.89    0.76
   4   3   9   12.79    0.77
   4   3   9   12.69    0.75
   4   3  10    2.13    0.31
  -4  -3 -10    2.07    0.29
  -4  -3 -10    1.96    0.24
   4   3  10    2.08    0.28
   4   3  10    2.15    0.27
   4   3  11    7.61    0.46
  -4  -3 -11    7.94    0.43
  -4  -3 -11    6.71    0.39
  -4  -4   7   49.01    1.15
   4   4  -7   52.22    1.25
   4   4  -7   50.56    1.18
  -4  -4   7   49.44    1.22
  -4  -4   6   58.22    1.32
  -4  -4   6   53.24    1.49
  -4  -4   6   57.23    1.53
   4   4  -6   53.84    1.55
   4   4  -6   54.18    1.51
  -4  -4   6   56.92    1.55
   4   4  -5   20.83    1.00
  -4  -4   5   18.95    0.93
  -4  -4   5   18.53    0.91
  -4  -4   5   19.75    0.81
   4   4  -4   69.14    1.62
   4   4  -4   64.78    1.94
  -4  -4   4   66.09    1.83
   4   4  -4   68.03    1.68
  -4  -4   4   66.62    1.86
  -4  -4   4   66.97    1.79
   4   4  -3  147.61    2.76
   4   4  -3  152.32    3.24
  -4  -4   3  147.68    2.93
   4   4  -3  158.23    3.01
  -4  -4   3  153.11    3.08
  -4  -4   3  154.78    3.07
  -4  -4   3  144.98    2.87
  -4  -4   3  158.51    3.07
   4   4  -2   23.27    0.86
   4   4  -2   23.38    1.05
  -4  -4   2   24.51    0.97
   4   4  -2   22.78    0.96
  -4  -4   2   23.63    0.88
  -4  -4   2   23.32    0.74
   4   4  -2   23.23    0.97
  -4  -4   2   23.20    1.00
  -4  -4   2   22.94    0.92
  -4  -4   2   22.49    0.86
  -4  -4   1    4.90    0.33
   4   4  -1    3.73    0.33
   4   4  -1    3.98    0.36
  -4  -4   1    3.90    0.32
   4   4  -1    4.02    0.39
  -4  -4   1    3.78    0.39
  -4  -4   1    3.62    0.30
   4   4   0    2.08    0.25
   4   4   0    1.91    0.24
   4   4   0    2.37    0.26
   4   4   0    2.52    0.24
   4   4   0    1.83    0.26
  -4  -4   0    2.10    0.21
   4   4   0    1.98    0.24
  -4  -4   0    2.12    0.25
  -4  -4   0    2.35    0.25
   4   4   0    1.96    0.27
  -4  -4   0    2.07    0.28
   4   4   1  171.64    2.88
  -4  -4  -1  167.04    2.77
   4   4   1  171.61    2.67
   4   4   1  168.76    2.81
   4   4   1  166.32    2.64
   4   4   1  168.59    2.92
   4   4   1  172.61    2.98
   4   4   1  162.85    2.74
  -4  -4  -1  170.80    2.52
  -4  -4  -1  163.50    2.70
   4   4   1  175.35    3.04
  -4  -4  -1  164.99    2.63
  -4  -4  -1  173.58    2.97
  -4  -4  -2  396.42    5.52
   4   4   2  420.25    5.43
  -4  -4  -2  401.51    5.47
   4   4   2  413.80    5.49
   4   4   2  408.03    5.83
   4   4   2  400.86    5.57
  -4  -4  -2  407.43    5.10
  -4  -4  -2  413.61    5.57
   4   4   2  412.32    5.87
  -4  -4  -2  407.04    5.74
   4   4   2  417.22    5.81
  -4  -4  -3  104.50    1.73
  -4  -4  -3  100.52    1.77
  -4  -4  -3   94.91    1.70
   4   4   3   97.66    1.93
   4   4   3   98.22    1.75
   4   4   3  101.27    2.03
   4   4   3  102.25    1.87
  -4  -4  -3   98.36    1.83
   4   4   3  102.03    2.02
  -4  -4  -3  101.06    1.75
   4   4   4  170.89    2.73
   4   4   4  170.26    3.02
   4   4   4  169.71    2.76
   4   4   4  173.11    2.85
   4   4   4  173.13    2.88
   4   4   4  178.81    3.06
   4   4   5   43.64    1.20
   4   4   5   46.30    1.18
   4   4   5   40.14    1.27
   4   4   5   41.68    1.20
  -4  -4  -5   41.96    1.21
   4   4   5   44.58    1.17
   4   4   5   44.24    1.31
   4   4   5   42.61    1.15
   4   4   6  239.62    3.95
   4   4   6  227.74    3.70
   4   4   6  229.27    3.99
  -4  -4  -6  240.36    3.55
   4   4   6  236.85    3.71
   4   4   6  227.23    3.96
   4   4   6  237.22    3.85
   4   4   7   31.57    1.21
   4   4   7   33.28    1.03
   4   4   7   32.25    1.19
  -4  -4  -7   32.66    1.13
   4   4   7   32.11    0.97
   4   4   7   32.59    1.18
   4   4   7   33.05    1.14
   4   4   8    4.78    0.49
   4   4   8    4.51    0.43
  -4  -4  -8    5.00    0.48
  -4  -4  -8    5.31    0.39
   4   4   8    4.91    0.46
   4   4   8    5.37    0.46
   4   4   9    1.38    0.28
   4   4   9    1.56    0.23
  -4  -4  -9    1.45    0.25
   4   4   9    1.52    0.25
   4   4   9    1.57    0.24
   4   4  10    0.79    0.20
  -4  -4 -10    1.21    0.22
  -4  -4 -10    0.94    0.16
  -4  -5   7    7.36    0.39
   4   5  -7    7.31    0.40
  -4  -5   7    7.81    0.43
  -4  -5   7    6.56    0.31
   4   5  -6    1.30    0.23
  -4  -5   6    1.17    0.20
   4   5  -6    0.77    0.16
  -4  -5   6    1.08    0.22
  -4  -5   6    1.09    0.18
   4   5  -5   16.16    0.70
   4   5  -5   14.91    0.74
  -4  -5   5   15.57    0.78
   4   5  -5   15.85    0.87
  -4  -5   5   16.31    0.87
   4   5  -5   15.92    0.69
  -4  -5   5   15.34    0.70
  -4  -5   5   15.75    0.75
   4   5  -4  122.36    2.55
   4   5  -4  131.07    2.96
   4   5  -4  128.78    2.70
  -4  -5   4  128.04    2.69
   4   5  -4  135.56    2.74
  -4  -5   4  127.28    2.85
  -4  -5   4  130.10    2.74
   4   5  -3   68.27    1.80
   4   5  -3   69.77    2.08
   4   5  -3   71.77    1.87
  -4  -5   3   70.95    1.81
   4   5  -3   75.14    2.02
  -4  -5   3   77.27    2.05
  -4  -5   3   68.41    1.85
  -4  -5   3   72.23    1.98
   4   5  -2   17.08    0.82
  -4  -5   2   15.91    0.83
   4   5  -2   17.49    0.96
  -4  -5   2   17.30    0.75
   4   5  -2   17.34    0.80
  -4  -5   2   16.88    0.68
   4   5  -2   17.59    0.91
  -4  -5   2   17.06    0.90
   4   5  -2   17.94    0.66
  -4  -5   2   17.04    0.69
   4   5  -1    8.49    0.56
  -4  -5   1    7.81    0.41
   4   5  -1    8.54    0.51
  -4  -5   1    8.48    0.51
   4   5  -1    7.73    0.61
  -4  -5   1    7.94    0.54
   4   5  -1    8.33    0.61
  -4  -5   1    8.07    0.60
   4   5  -1    7.99    0.47
   4   5   0  188.16    3.57
   4   5   0  192.05    3.12
   4   5   0  198.92    3.43
   4   5   0  200.93    3.65
  -4  -5   0  191.82    3.54
   4   5   0  193.56    3.24
   4   5   1  549.85    7.50
   4   5   1  564.79    7.83
   4   5   1  554.96    7.95
   4   5   1  568.40    7.33
  -4  -5  -1  574.69    7.24
  -4  -5  -1  556.01    7.89
   4   5   1  573.98    7.74
   4   5   2  220.52    3.35
   4   5   2  225.38    3.82
   4   5   2  211.65    3.23
  -4  -5  -2  224.62    3.22
   4   5   2  232.09    3.85
  -4  -5  -2  239.18    3.75
   4   5   2  227.85    3.74
   4   5   2  235.37    3.45
   4   5   3    6.90    0.47
   4   5   3    6.56    0.49
   4   5   3    6.23    0.34
   4   5   3    7.54    0.50
  -4  -5  -3    6.81    0.41
   4   5   3    6.77    0.47
   4   5   3    6.77    0.41
   4   5   4   18.67    0.79
   4   5   4   17.76    0.82
   4   5   4   18.03    0.66
   4   5   4   18.85    0.76
   4   5   4   17.75    0.78
   4   5   4   17.65    0.74
   4   5   5    5.41    0.43
   4   5   5    5.03    0.43
   4   5   5    4.54    0.45
  -4  -5  -5    5.00    0.43
   4   5   5    4.82    0.41
   4   5   6  117.64    2.57
   4   5   6  118.04    2.45
   4   5   6  110.84    2.59
  -4  -5  -6  121.55    2.24
   4   5   6  113.57    2.37
   4   5   6  109.85    2.24
   4   5   7   30.39    1.25
   4   5   7   31.80    1.13
   4   5   7   28.50    1.02
  -4  -5  -7   29.32    1.07
   4   5   7   26.43    0.99
   4   5   7   29.90    1.22
   4   5   8    8.12    0.65
   4   5   8    7.76    0.51
   4   5   8    7.49    0.58
  -4  -5  -8    8.38    0.47
   4   5   8    6.68    0.46
   4   5   9   45.41    1.53
   4   5   9   47.11    1.31
  -4  -5  -9   45.64    1.29
  -4  -5 -10   87.31    1.80
   4   5  10   85.30    1.92
  -4  -6   6   12.26    0.62
   4   6  -6   11.39    0.58
  -4  -6   6   11.57    0.50
   4   6  -5   90.33    1.89
   4   6  -5   90.77    2.18
  -4  -6   5   90.23    1.94
  -4  -6   5   88.93    2.17
   4   6  -5   90.85    1.94
  -4  -6   5   90.43    1.90
   4   6  -4  107.20    2.37
   4   6  -4  108.40    2.65
  -4  -6   4  109.71    2.30
   4   6  -4  114.50    2.54
  -4  -6   4  111.49    2.61
  -4  -6   4  111.68    2.47
   4   6  -3   89.69    2.23
  -4  -6   3   93.84    2.05
   4   6  -3   90.59    2.40
  -4  -6   3   90.51    2.32
  -4  -6   3   87.49    2.31
   4   6  -3   95.57    2.51
   4   6  -2    1.46    0.28
   4   6  -2    1.50    0.31
  -4  -6   2    1.54    0.23
  -4  -6   2    2.31    0.26
   4   6  -2    1.46    0.31
  -4  -6   2    1.41    0.29
  -4  -6   2    1.11    0.25
   4   6  -1   23.01    1.04
   4   6  -1   23.43    1.13
  -4  -6   1   24.32    1.03
   4   6  -1   23.09    1.12
  -4  -6   1   22.58    1.10
   4   6  -1   22.78    0.86
   4   6   0  314.00    5.12
   4   6   0  314.84    5.30
  -4  -6   0  312.47    5.22
   4   6   0  306.39    4.78
   4   6   1  126.15    2.78
   4   6   1  130.78    2.82
  -4  -6  -1  127.29    2.71
   4   6   1  124.75    2.56
   4   6   2    5.26    0.40
   4   6   2    4.93    0.39
   4   6   2    5.04    0.47
   4   6   2    5.65    0.49
   4   6   2    5.35    0.46
  -4  -6  -2    5.08    0.44
   4   6   2    4.91    0.40
   4   6   3   38.07    1.23
   4   6   3   33.44    1.03
   4   6   3   35.73    1.20
   4   6   3   35.60    1.25
  -4  -6  -3   38.49    1.12
   4   6   3   37.57    1.17
   4   6   4    2.86    0.37
   4   6   4    2.34    0.26
   4   6   4    2.54    0.34
   4   6   4    2.58    0.29
   4   6   4    2.56    0.32
   4   6   5  172.00    3.32
   4   6   5  166.88    3.47
   4   6   5  166.81    2.89
   4   6   5  179.42    3.39
   4   6   5  177.38    3.34
   4   6   6  171.67    3.45
   4   6   6  173.57    3.67
   4   6   6  180.08    3.46
   4   6   7   85.12    2.13
   4   6   7   82.18    2.25
   4   6   7   87.49    2.07
  -4  -6  -7   89.72    2.04
   4   6   7   85.04    2.28
   4   6   8   31.79    1.21
   4   6   8   30.58    1.00
   4   6   8   30.88    1.26
   4   6   9   21.07    0.82
  -4  -6  -9   22.14    0.75
   4   6   9   22.24    0.96
  -4  -7   6   24.03    0.79
   4   7  -6   23.02    0.71
   4   7  -6   21.97    0.64
  -4  -7   6   21.87    0.63
   4   7  -5   73.48    1.56
  -4  -7   5   69.32    1.39
   4   7  -5   70.20    1.70
   4   7  -5   69.85    1.59
  -4  -7   5   69.80    1.51
  -4  -7   5   68.88    1.75
   4   7  -4  110.66    2.35
   4   7  -4  104.32    2.48
  -4  -7   4  109.16    2.09
  -4  -7   4  113.51    2.56
   4   7  -4  114.68    2.50
  -4  -7   4  112.88    2.40
   4   7  -3   60.48    1.79
   4   7  -3   62.37    1.92
  -4  -7   3   60.83    1.44
   4   7  -3   58.85    1.86
  -4  -7   3   58.10    1.78
  -4  -7   3   58.32    1.77
   4   7  -2   13.01    0.81
   4   7  -2   13.42    0.89
  -4  -7   2   12.03    0.62
   4   7  -2   13.10    0.88
  -4  -7   2   11.63    0.78
  -4  -7   2   12.99    0.79
  -4  -7   1    6.83    0.56
   4   7  -1    6.97    0.61
   4   7  -1    6.99    0.64
   4   7  -1    7.58    0.67
   4   7  -1    6.91    0.47
  -4  -7   1    6.58    0.60
   4   7   0   82.91    2.27
   4   7   0   80.97    2.28
  -4  -7   0   82.90    2.04
   4   7   0   84.64    2.36
   4   7   0   84.91    2.00
  -4  -7   0   86.33    2.33
   4   7   1   21.22    0.96
   4   7   1   21.23    1.05
   4   7   1   21.89    1.08
   4   7   1   20.47    0.94
  -4  -7  -1   20.04    1.00
   4   7   2   21.82    0.89
   4   7   2   20.12    0.89
   4   7   2   20.23    1.01
   4   7   2   21.59    1.01
   4   7   2   19.46    0.97
  -4  -7  -2   20.38    0.95
   4   7   2   21.08    0.93
   4   7   3   75.36    1.96
   4   7   3   77.33    2.12
   4   7   3   74.90    1.90
   4   7   3   71.97    1.80
  -4  -7  -3   79.91    1.81
   4   7   3   73.11    1.92
   4   7   4  112.79    2.66
   4   7   4  111.89    2.33
   4   7   4  109.23    2.64
   4   7   4  112.59    2.55
   4   7   5  177.27    3.71
   4   7   5  180.67    3.21
   4   7   5  177.63    3.64
   4   7   5  186.07    3.61
   4   7   6   49.58    1.75
   4   7   6   48.53    1.36
   4   7   6   50.87    1.65
  -4  -7  -6   53.75    1.41
   4   7   6   51.56    1.70
   4   7   7   50.05    1.69
   4   7   7   50.50    1.53
  -4  -7  -7   52.17    1.42
   4   7   7   50.38    1.65
   4   7   8    2.79    0.34
   4   7   8    2.67    0.35
   4   7   9    6.01    0.43
   4   8  -5   25.06    0.70
  -4  -8   5   25.29    0.85
   4   8  -5   25.61    0.79
   4   8  -5   26.30    0.78
   4   8  -4   48.99    1.32
   4   8  -4   49.84    1.38
  -4  -8   4   47.11    1.38
   4   8  -4   48.83    1.39
  -4  -8   4   46.59    1.30
   4   8  -3   41.03    1.37
  -4  -8   3   39.41    1.32
   4   8  -3   38.55    1.35
   4   8  -3   39.76    1.42
  -4  -8   3   38.61    1.33
   4   8  -2   18.05    0.96
   4   8  -2   17.96    0.97
  -4  -8   2   15.30    0.68
   4   8  -2   19.22    1.04
  -4  -8   2   16.32    0.90
  -4  -8   2   17.99    0.88
   4   8  -1    1.76    0.33
   4   8  -1    1.10    0.28
  -4  -8   1    1.22    0.25
  -4  -8   1    1.33    0.29
   4   8  -1    1.11    0.20
  -4  -8   0    5.98    0.49
   4   8   0    6.99    0.61
   4   8   0    5.96    0.58
   4   8   0    5.96    0.48
   4   8   0    6.19    0.60
  -4  -8   0    7.10    0.63
   4   8   1  285.67    5.05
  -4  -8  -1  297.67    4.63
   4   8   1  280.54    5.13
   4   8   1  293.38    4.98
   4   8   1  305.34    5.22
  -4  -8  -1  299.31    5.17
   4   8   2   91.54    2.02
   4   8   2   86.21    2.22
   4   8   2   86.27    2.32
   4   8   2   92.96    2.28
  -4  -8  -2   89.61    2.22
   4   8   3  111.81    2.50
   4   8   3  104.10    2.69
   4   8   3  109.99    2.32
   4   8   3  106.58    2.44
   4   8   3  107.40    2.55
   4   8   4    7.58    0.63
   4   8   4    7.04    0.54
   4   8   4    7.42    0.66
   4   8   4    8.93    0.67
   4   8   5    1.56    0.30
   4   8   5    1.48    0.25
   4   8   5    1.47    0.31
   4   8   5    1.51    0.32
   4   8   6   36.94    1.44
   4   8   6   36.93    1.14
   4   8   6   34.90    1.36
   4   8   6   38.27    1.39
   4   8   7   17.52    0.89
   4   8   7   17.34    0.82
  -4  -8  -7   16.99    0.66
   4   8   7   17.12    0.86
   4   8   8    4.64    0.38
  -4  -9   4   51.39    1.20
   4   9  -4   55.29    1.38
   4   9  -4   52.09    1.26
  -4  -9   4   53.39    1.20
   4   9  -4   53.54    1.38
   4   9  -3   37.49    1.10
  -4  -9   3   38.11    1.09
   4   9  -3   37.21    1.26
   4   9  -3   36.84    1.20
  -4  -9   3   36.62    1.14
   4   9  -2   22.31    0.93
   4   9  -2   21.98    1.03
  -4  -9   2   21.94    0.84
   4   9  -2   24.23    1.05
  -4  -9   2   21.37    0.94
   4   9  -1    2.07    0.35
  -4  -9   1    2.01    0.27
   4   9  -1    2.12    0.34
  -4  -9   1    1.85    0.24
   4   9  -1    1.93    0.30
  -4  -9   1    1.73    0.31
   4   9   0   71.43    2.11
   4   9   0   74.81    2.02
   4   9   0   77.93    1.78
   4   9   0   77.14    2.10
  -4  -9   0   72.94    2.03
   4   9   1  211.05    4.07
   4   9   1  206.79    3.82
  -4  -9  -1  203.57    3.90
   4   9   2  104.14    2.53
   4   9   2  102.55    2.52
   4   9   2  109.62    2.33
  -4  -9  -2  105.13    2.33
   4   9   3   18.29    0.84
   4   9   3   19.23    0.94
   4   9   3   18.75    1.00
   4   9   4   10.49    0.68
   4   9   4   10.10    0.64
   4   9   4   10.46    0.76
   4   9   4   10.21    0.69
   4   9   5    6.99    0.57
   4   9   5    7.06    0.49
   4   9   5    7.31    0.61
  -4  -9  -5    7.02    0.51
   4   9   5    7.35    0.58
   4   9   6  134.23    2.77
   4   9   6  130.17    2.71
   4   9   6  128.72    2.64
   4   9   7   40.04    1.16
   4  10  -3   97.47    1.90
   4  10  -3   99.45    1.90
   4  10  -2    0.88    0.19
   4  10  -2    1.28    0.20
   4  10  -2    1.04    0.19
  -4 -10   2    1.10    0.19
   4  10  -1    7.26    0.54
  -4 -10   1    7.24    0.41
   4  10  -1    8.31    0.52
  -4 -10   1    7.79    0.50
   4  10  -1    7.50    0.49
   4  10   0   48.28    1.53
  -4 -10   0   45.62    1.30
   4  10   0   51.91    1.40
  -4 -10   0   49.56    1.38
   4  10   0   47.03    1.26
   4  10   1   66.49    1.58
   4  10   1   70.10    1.54
  -4 -10  -1   64.59    1.62
   4  10   1   67.51    1.85
   4  10   2    8.12    0.58
   4  10   2    8.05    0.56
   4  10   3    2.87    0.34
   4  10   3    3.12    0.37
   4  10   4    2.35    0.28
   4  10   4    2.49    0.33
  -4 -10  -4    1.98    0.27
   4  10   5  123.93    2.17
   4  10   5  127.96    2.54
   4  11   0   17.79    0.70
   4  11   1   44.66    1.18
  -4 -11  -1   38.95    1.02
   4  11   2   15.03    0.62
  -4 -11  -2   12.30    0.56
  -5   8  -1   12.41    0.54
  -5   8  -2   17.44    0.67
   5  -8   2   17.22    0.69
  -5   8  -3   13.99    0.59
   5  -8   3   14.50    0.63
  -5   8  -3   14.73    0.58
  -5   8  -4   13.45    0.54
   5  -8   4   14.15    0.60
  -5   8  -4   14.29    0.61
   5  -8   4   12.62    0.42
  -5   8  -5    1.96    0.18
  -5   8  -5    1.84    0.20
   5  -8   5    2.19    0.20
  -5   7   1    2.66    0.28
  -5   7   1    2.57    0.28
  -5   7   0   11.03    0.61
  -5   7   0   11.46    0.63
  -5   7  -1    0.86    0.19
  -5   7  -1    0.72    0.18
  -5   7  -1    0.72    0.19
  -5   7  -2   38.86    1.25
   5  -7   2   39.80    1.12
  -5   7  -2   37.77    1.20
  -5   7  -2   39.08    1.29
  -5   7  -2   41.42    1.30
  -5   7  -3    7.12    0.50
   5  -7   3    7.96    0.51
   5  -7   3    8.06    0.58
  -5   7  -3    6.59    0.51
  -5   7  -3    7.12    0.55
  -5   7  -3    6.92    0.49
   5  -7   3    6.74    0.38
  -5   7  -3    7.71    0.52
  -5   7  -4   35.99    1.13
   5  -7   4   37.46    1.16
   5  -7   4   36.47    1.24
  -5   7  -4   34.34    1.24
  -5   7  -4   37.14    1.31
  -5   7  -4   37.08    1.25
  -5   7  -4   38.78    1.30
   5  -7   4   35.50    1.07
  -5   7  -4   37.07    1.11
  -5   7  -5   91.76    1.87
   5  -7   5   93.58    1.99
   5  -7   5   89.41    2.02
  -5   7  -5   88.15    2.09
  -5   7  -5   91.66    2.17
   5  -7   5   93.07    2.00
  -5   7  -6   62.81    1.34
   5  -7   6   66.79    1.56
   5  -7   6   66.29    1.55
  -5   7  -6   68.74    1.49
  -5   7  -6   68.33    1.63
  -5   7  -6   68.62    1.77
   5  -7   6   68.39    1.64
   5  -7   7   19.31    0.68
   5  -7   7   17.52    0.62
  -5   7  -7   17.91    0.64
  -5   7  -7   19.93    0.81
   5  -7   7   18.54    0.73
  -5   6   3   15.32    0.63
  -5   6   2    0.58    0.16
  -5   6   2    0.77    0.19
  -5   6   1   10.80    0.64
  -5   6   1   10.79    0.68
  -5   6   0   22.27    0.97
  -5   6   0   21.31    0.90
  -5   6   0   21.83    1.03
  -5   6  -1   35.95    1.26
   5  -6   1   36.76    1.24
  -5   6  -1   35.69    1.24
  -5   6  -1   37.12    1.35
  -5   6  -1   35.00    1.13
  -5   6  -1   35.92    1.37
  -5   6  -2   50.89    1.52
   5  -6   2   50.84    1.55
  -5   6  -2   50.95    1.63
  -5   6  -2   48.45    1.65
  -5   6  -2   48.94    1.50
  -5   6  -2   50.47    1.65
  -5   6  -3  114.45    2.44
   5  -6   3  110.75    2.53
  -5   6  -3  111.94    2.69
  -5   6  -3  110.37    2.72
  -5   6  -3  107.60    2.53
  -5   6  -3  110.96    2.57
   5  -6   3  107.64    2.18
  -5   6  -3  113.20    2.62
  -5   6  -4   26.08    1.01
   5  -6   4   25.82    1.11
   5  -6   4   26.31    1.14
  -5   6  -4   26.37    0.96
  -5   6  -4   28.08    1.23
  -5   6  -4   23.65    1.12
  -5   6  -4   25.23    1.18
  -5   6  -4   27.20    1.20
   5  -6   4   25.01    1.00
  -5   6  -5  217.90    3.68
   5  -6   5  223.20    4.03
   5  -6   5  214.14    3.96
  -5   6  -5  228.73    3.87
  -5   6  -5  229.16    4.24
  -5   6  -5  234.93    4.25
  -5   6  -5  217.28    4.15
  -5   6  -5  221.68    4.23
   5  -6   5  222.70    3.98
   5  -6   6    2.05    0.31
   5  -6   6    2.05    0.29
  -5   6  -6    2.05    0.24
  -5   6  -6    1.86    0.28
  -5   6  -6    2.34    0.34
  -5   6  -6    1.94    0.30
  -5   6  -6    2.33    0.33
  -5   6  -6    2.20    0.35
   5  -6   6    2.25    0.33
   5  -6   7    2.69    0.32
   5  -6   7    2.85    0.30
  -5   6  -7    2.72    0.32
  -5   6  -7    2.81    0.30
  -5   6  -7    2.91    0.38
   5  -6   7    3.63    0.38
   5  -6   8    9.56    0.52
   5  -6   8    8.58    0.43
  -5   6  -8    9.21    0.51
  -5   6  -8    8.53    0.38
  -5   6  -8    9.78    0.58
   5  -6   8    9.19    0.53
  -5   5   4    0.62    0.13
  -5   5   4    0.83    0.15
  -5   5   3    0.64    0.16
  -5   5   3    0.55    0.16
  -5   5   3    0.68    0.18
  -5   5   2   23.31    0.99
  -5   5   2   20.92    0.87
   5  -5  -2   22.44    0.81
  -5   5   2   20.87    0.98
  -5   5   1  182.64    3.47
   5  -5  -1  190.63    3.22
  -5   5   1  180.35    3.28
  -5   5   1  189.35    3.67
  -5   5   0  127.97    2.73
   5  -5   0  132.83    2.51
  -5   5   0  123.58    2.58
  -5   5   0  126.04    2.80
  -5   5   0  128.42    2.55
  -5   5   0  128.76    2.94
  -5   5  -1   48.29    1.49
   5  -5   1   49.38    1.32
  -5   5  -1   50.50    1.62
  -5   5  -1   49.94    1.69
  -5   5  -1   48.66    1.49
  -5   5  -1   48.60    1.66
  -5   5  -2   28.98    1.09
   5  -5   2   32.29    0.98
  -5   5  -2   27.64    1.24
  -5   5  -2   30.55    1.28
  -5   5  -2   30.44    1.32
  -5   5  -2   28.67    1.16
  -5   5  -2   28.74    1.15
  -5   5  -3   92.95    2.11
   5  -5   3   92.30    2.37
  -5   5  -3   86.91    2.42
  -5   5  -3   91.94    2.47
  -5   5  -3   93.08    2.35
   5  -5   3   88.03    2.01
  -5   5  -4  100.42    2.14
   5  -5   4   96.59    2.44
  -5   5  -4   98.40    2.21
  -5   5  -4   97.44    2.58
  -5   5  -4   97.58    2.57
  -5   5  -4   97.31    2.55
  -5   5  -4   97.92    2.51
   5  -5   4   93.70    2.25
  -5   5  -5    3.86    0.36
   5  -5   5    4.93    0.51
   5  -5   5    4.01    0.44
  -5   5  -5    4.18    0.44
  -5   5  -5    3.95    0.48
  -5   5  -5    4.49    0.50
  -5   5  -5    4.63    0.50
  -5   5  -5    3.83    0.47
   5  -5   5    4.24    0.46
  -5   5  -6   17.04    0.70
   5  -5   6   16.18    0.90
   5  -5   6   15.52    0.83
  -5   5  -6   15.07    0.86
  -5   5  -6   16.40    0.93
  -5   5  -6   16.14    0.88
  -5   5  -6   15.46    0.86
  -5   5  -6   17.18    0.98
   5  -5   6   15.33    0.89
   5  -5   7    1.05    0.26
   5  -5   7    1.01    0.22
  -5   5  -7    0.94    0.23
  -5   5  -7    0.83    0.22
  -5   5  -7    0.69    0.19
  -5   5  -7    0.89    0.25
   5  -5   8   93.18    2.14
   5  -5   8   94.53    1.95
  -5   5  -8   97.39    2.18
  -5   5  -8   92.36    1.96
  -5   5  -8   96.07    2.25
   5  -5   8   99.13    2.23
   5  -5   9   84.82    1.80
  -5   5  -9   90.46    1.86
   5  -5   9   88.49    1.84
  -5   5  -9   82.10    1.79
  -5   4   4   28.21    1.03
   5  -4  -4   29.74    0.96
  -5   4   4   29.97    1.00
  -5   4   3   33.88    1.24
   5  -4  -3   35.15    1.22
  -5   4   3   33.42    1.23
  -5   4   3   35.18    1.25
  -5   4   2  323.19    5.29
  -5   4   2  308.97    5.20
   5  -4  -2  331.50    5.34
  -5   4   2  323.18    4.90
  -5   4   2  327.51    5.40
  -5   4   1  167.44    3.26
  -5   4   1  157.99    3.11
   5  -4  -1  175.48    3.37
  -5   4   1  162.70    3.23
  -5   4   1  171.06    3.45
  -5   4   0   13.11    0.65
   5  -4   0   12.94    0.75
  -5   4   0   12.69    0.73
  -5   4   0   11.95    0.77
  -5   4   0   12.23    0.69
  -5   4   0   10.47    0.72
  -5   4  -1    1.07    0.21
   5  -4   1    1.35    0.24
  -5   4  -1    0.99    0.23
  -5   4  -1    0.87    0.26
  -5   4  -1    0.98    0.26
  -5   4  -1    1.23    0.26
  -5   4  -1    1.89    0.29
  -5   4  -1    1.29    0.26
  -5   4  -2    3.60    0.35
   5  -4   2    4.23    0.40
  -5   4  -2    3.79    0.45
  -5   4  -2    3.74    0.43
  -5   4  -2    3.76    0.47
  -5   4  -2    4.24    0.48
  -5   4  -2    3.67    0.41
  -5   4  -2    4.31    0.43
  -5   4  -3  107.33    2.21
   5  -4   3  113.22    2.30
  -5   4  -3  106.69    2.10
  -5   4  -3  108.82    2.70
  -5   4  -3  111.98    2.71
  -5   4  -3  101.63    2.63
  -5   4  -3  112.78    2.70
  -5   4  -3  109.56    2.51
   5  -4   3  108.04    2.26
  -5   4  -4   76.21    1.70
   5  -4   4   75.03    1.76
   5  -4   4   75.19    2.07
  -5   4  -4   75.59    1.87
  -5   4  -4   74.59    2.15
  -5   4  -4   69.47    2.11
  -5   4  -4   74.78    2.10
  -5   4  -4   76.46    2.13
  -5   4  -4   74.76    2.07
   5  -4   4   71.20    1.87
   5  -4   5    0.99    0.24
  -5   4  -5    0.98    0.18
   5  -4   5    0.98    0.19
   5  -4   5    0.94    0.25
   5  -4   5    1.01    0.23
  -5   4  -5    1.26    0.26
  -5   4  -5    2.08    0.35
  -5   4  -5    1.02    0.27
  -5   4  -5    0.92    0.24
  -5   4  -5    0.99    0.27
   5  -4   6   20.30    0.83
   5  -4   6   19.68    1.01
   5  -4   6   20.97    0.95
  -5   4  -6   21.85    1.05
  -5   4  -6   19.60    1.03
  -5   4  -6   21.20    1.02
  -5   4  -6   19.72    0.95
  -5   4  -6   20.24    1.05
   5  -4   6   19.45    1.01
   5  -4   7   75.40    1.74
   5  -4   7   75.41    2.09
   5  -4   7   74.37    1.89
  -5   4  -7   72.25    2.07
  -5   4  -7   77.16    2.06
  -5   4  -7   73.63    1.89
  -5   4  -7   72.40    1.83
  -5   4  -7   72.94    2.12
   5  -4   7   77.06    2.11
   5  -4   8  130.36    2.82
   5  -4   8  134.14    2.55
  -5   4  -8  136.01    2.88
  -5   4  -8  140.61    2.68
  -5   4  -8  124.72    2.35
   5  -4   8  122.34    2.38
  -5   4  -8  129.02    2.80
   5  -4   8  139.38    2.92
   5  -4   9   48.60    1.39
  -5   4  -9   47.62    1.41
   5  -4   9   45.23    1.19
  -5   4  -9   46.31    1.30
   5  -4  10    1.90    0.21
  -5   4 -10    1.39    0.20
   5  -4  10    1.55    0.17
   5  -4  10    1.54    0.18
  -5   3   5    4.50    0.38
  -5   3   5    4.73    0.33
  -5   3   4   14.60    0.81
  -5   3   4   15.42    0.74
  -5   3   3  251.98    4.59
  -5   3   3  258.45    4.11
  -5   3   3  265.43    4.48
  -5   3   3  257.56    4.48
  -5   3   2   24.73    1.06
  -5   3   2   25.13    1.11
  -5   3   2   23.80    0.98
  -5   3   2   26.21    1.00
  -5   3   2   25.00    1.09
  -5   3   1    4.39    0.42
  -5   3   1    4.38    0.43
  -5   3   1    4.84    0.47
  -5   3   1    4.51    0.45
  -5   3   0   29.44    1.04
  -5   3   0   29.74    1.02
   5  -3   0   29.95    1.22
  -5   3   0   30.13    1.25
  -5   3   0   29.48    1.21
  -5   3   0   29.39    1.10
  -5   3   0   29.32    1.15
  -5   3  -1    2.31    0.27
   5  -3   1    3.37    0.38
  -5   3  -1    2.40    0.29
  -5   3  -1    2.74    0.39
  -5   3  -1    2.57    0.35
  -5   3  -1    2.47    0.32
  -5   3  -2  177.12    2.90
   5  -3   2  182.31    3.30
  -5   3  -2  178.57    3.39
  -5   3  -2  168.57    3.51
  -5   3  -2  183.72    3.53
  -5   3  -2  175.76    3.28
  -5   3  -2  174.94    3.26
  -5   3  -3  165.56    2.63
   5  -3   3  166.40    3.09
  -5   3  -3  167.17    2.77
  -5   3  -3  167.43    3.35
  -5   3  -3  155.09    3.28
  -5   3  -3  177.55    3.39
  -5   3  -3  159.86    3.15
   5  -3   3  162.05    2.89
   5  -3   4   61.21    1.62
  -5   3  -4   60.73    1.61
   5  -3   4   61.20    1.37
  -5   3  -4   57.89    1.79
  -5   3  -4   57.97    1.74
  -5   3  -4   61.33    1.76
  -5   3  -4   61.11    1.72
   5  -3   4   61.91    1.64
   5  -3   5   74.18    1.85
   5  -3   5   74.36    2.01
   5  -3   5   73.91    1.84
  -5   3  -5   75.57    1.96
  -5   3  -5   77.43    2.06
  -5   3  -5   79.39    1.97
  -5   3  -5   75.98    1.96
  -5   3  -5   76.85    2.06
   5  -3   5   78.15    2.00
   5  -3   6   61.13    1.66
   5  -3   6   52.65    1.72
   5  -3   6   62.75    1.66
  -5   3  -6   62.16    1.83
  -5   3  -6   53.83    1.76
  -5   3  -6   61.47    1.74
  -5   3  -6   60.42    1.54
  -5   3  -6   57.43    1.47
  -5   3  -6   60.50    1.66
   5  -3   6   60.04    1.46
  -5   3  -6   57.79    1.79
   5  -3   6   61.22    1.82
   5  -3   7   91.04    2.16
   5  -3   7   94.43    2.36
   5  -3   7   92.62    2.12
  -5   3  -7   92.80    2.39
  -5   3  -7   93.45    2.31
  -5   3  -7   97.06    2.15
  -5   3  -7   90.05    2.00
   5  -3   7   89.59    1.98
   5  -3   7   90.39    2.07
  -5   3  -7   92.21    2.33
   5  -3   7   94.66    2.41
  -5   3  -8   95.84    2.09
   5  -3   8  100.66    2.28
   5  -3   8  108.69    2.52
   5  -3   8  104.51    2.18
  -5   3  -8  109.08    2.58
  -5   3  -8  106.46    2.33
   5  -3   8  102.66    2.17
   5  -3   8   99.27    2.27
  -5   3  -8  102.04    2.36
   5  -3   8  110.33    2.58
  -5   3  -9    3.14    0.31
   5  -3   9    3.08    0.36
  -5   3  -9    3.64    0.41
  -5   3  -9    3.51    0.30
   5  -3   9    3.30    0.31
   5  -3   9    3.23    0.37
   5  -3   9    3.69    0.40
  -5   3  -9    3.82    0.35
  -5   3 -10    7.97    0.40
   5  -3  10    8.33    0.47
  -5   3 -10    9.01    0.52
   5  -3  10    7.15    0.48
   5  -3  10    8.41    0.46
  -5   2   6   23.47    0.77
  -5   2   5    4.79    0.43
  -5   2   5    4.93    0.35
  -5   2   5    5.26    0.35
  -5   2   4    0.94    0.24
   5  -2  -4    1.02    0.21
  -5   2   4    1.68    0.25
  -5   2   4    1.57    0.25
  -5   2   3   55.35    1.78
   5  -2  -3   58.76    1.67
  -5   2   3   55.17    1.48
  -5   2   3   58.34    1.66
  -5   2   3   57.17    1.62
  -5   2   3   58.85    1.71
  -5   2   2    4.40    0.46
   5  -2  -2    4.20    0.42
  -5   2   2    4.05    0.40
  -5   2   2    4.42    0.43
  -5   2   2    4.39    0.43
  -5   2   1   14.01    0.70
  -5   2   1   12.58    0.67
  -5   2   1   12.89    0.72
   5  -2  -1   14.48    0.74
  -5   2   1   14.02    0.74
  -5   2   1   13.18    0.71
  -5   2   0  124.13    2.37
  -5   2   0  131.07    2.40
  -5   2   0  124.08    2.44
   5  -2   0  127.61    2.50
  -5   2   0  131.17    2.75
  -5   2   0  128.60    2.58
  -5   2   0  129.54    2.54
  -5   2  -1  174.21    2.74
   5  -2   1  171.36    3.31
  -5   2  -1  169.88    2.84
   5  -2   1  171.40    3.00
  -5   2  -1  182.30    3.02
  -5   2  -1  173.58    3.36
  -5   2  -1  178.28    3.16
  -5   2  -2  395.04    5.38
   5  -2   2  397.89    5.58
  -5   2  -2  397.39    5.85
  -5   2  -2  386.10    6.05
  -5   2  -2  383.03    5.97
  -5   2  -2  388.67    5.77
  -5   2  -2  392.92    5.76
   5  -2   3   88.36    2.00
  -5   2  -3   85.51    1.67
   5  -2   3   88.18    1.81
  -5   2  -3   83.14    1.65
  -5   2  -3   87.39    2.07
  -5   2  -3   82.99    2.07
  -5   2  -3   84.88    2.04
  -5   2  -3   88.54    1.96
   5  -2   3   82.80    1.69
   5  -2   4   85.66    1.98
  -5   2  -4   84.56    1.88
   5  -2   4   82.13    1.78
  -5   2  -4   79.36    2.03
  -5   2  -4   80.22    1.67
  -5   2  -4   80.48    1.99
  -5   2  -4   87.36    2.00
  -5   2  -4   87.47    1.99
   5  -2   4   85.57    1.89
   5  -2   5  125.32    2.59
   5  -2   5  124.52    2.38
  -5   2  -5  118.37    2.58
   5  -2   5  126.23    2.46
  -5   2  -5  119.25    2.70
  -5   2  -5  125.82    2.53
  -5   2  -5  125.59    2.52
   5  -2   5  122.59    2.61
   5  -2   5  126.72    2.26
  -5   2  -5  126.30    2.64
   5  -2   5  128.63    2.62
   5  -2   6   22.81    0.99
   5  -2   6   22.79    1.01
   5  -2   6   23.64    0.88
  -5   2  -6   20.75    0.99
  -5   2  -6   22.69    0.95
  -5   2  -6   21.44    1.01
  -5   2  -6   23.18    0.85
  -5   2  -6   22.60    0.88
   5  -2   6   22.59    0.91
  -5   2  -6   22.80    1.01
   5  -2   6   22.39    1.02
  -5   2  -7   13.14    0.67
   5  -2   7   13.29    0.78
   5  -2   7   15.03    0.83
   5  -2   7   13.91    0.68
  -5   2  -7   13.59    0.83
  -5   2  -7   13.91    0.80
  -5   2  -7   13.99    0.68
  -5   2  -7   11.93    0.57
   5  -2   7   13.56    0.75
  -5   2  -7   13.64    0.77
   5  -2   7   14.04    0.84
  -5   2  -8    6.44    0.50
   5  -2   8    6.34    0.54
   5  -2   8    7.17    0.57
  -5   2  -8    7.10    0.61
  -5   2  -8    6.23    0.51
   5  -2   8    6.27    0.52
   5  -2   8    6.32    0.54
   5  -2   8    7.15    0.60
  -5   2  -8    6.93    0.52
  -5   2  -9   71.08    1.77
   5  -2   9   75.34    1.88
  -5   2  -9   75.75    2.02
  -5   2  -9   73.73    1.64
   5  -2   9   71.57    1.84
   5  -2   9   72.81    1.99
   5  -2   9   74.68    1.96
  -5   2 -10   27.62    0.93
   5  -2  10   29.64    0.93
  -5   2 -10   29.32    1.05
   5  -2  10   27.65    0.95
   5  -2  10   28.60    0.94
   5  -2  10   27.79    1.09
   5  -2  11   29.06    0.93
  -5   1   6   11.46    0.56
  -5   1   6   11.19    0.48
  -5   1   5    9.89    0.65
   5  -1  -5   10.33    0.61
  -5   1   5    9.83    0.47
  -5   1   5    9.99    0.59
  -5   1   4   16.05    0.91
   5  -1  -4   15.68    0.87
  -5   1   4   16.24    0.85
  -5   1   4   15.69    0.70
  -5   1   3   26.30    1.18
   5  -1  -3   26.20    1.18
  -5   1   3   27.17    1.14
  -5   1   3   25.64    1.08
  -5   1   3   26.24    0.98
  -5   1   2  220.82    4.05
   5  -1  -2  227.81    4.15
  -5   1   2  220.55    4.01
  -5   1   2  219.21    3.68
  -5   1   2  222.35    3.87
  -5   1   2  214.30    3.76
  -5   1   1  376.61    5.58
  -5   1   1  395.31    5.75
   5  -1  -1  394.85    6.02
  -5   1   1  381.99    5.70
  -5   1   1  364.33    5.99
  -5   1   1  387.53    5.60
  -5   1   0  126.88    2.40
   5  -1   0  128.34    2.59
  -5   1   0  128.12    2.55
  -5   1   0  125.25    2.67
  -5   1   0  129.87    2.51
  -5   1  -1   53.10    1.29
   5  -1   1   53.98    1.42
  -5   1  -1   56.60    1.30
   5  -1   1   51.80    1.52
  -5   1  -1   51.66    1.48
  -5   1  -1   51.49    1.51
  -5   1  -1   52.12    1.40
   5  -1   2    3.45    0.32
  -5   1  -2    3.02    0.31
  -5   1  -2    2.98    0.28
  -5   1  -2    2.82    0.33
  -5   1  -2    3.24    0.34
  -5   1  -2    3.77    0.34
  -5   1  -2    3.57    0.33
   5  -1   3   48.22    1.37
  -5   1  -3   51.06    1.14
   5  -1   3   49.52    1.30
   5  -1   3   46.21    1.15
  -5   1  -3   47.59    1.36
  -5   1  -3   46.45    1.18
  -5   1  -3   44.58    1.35
  -5   1  -3   48.00    1.30
   5  -1   4   90.82    2.01
  -5   1  -4   86.82    2.04
  -5   1  -4   89.46    1.87
   5  -1   4   87.02    1.90
   5  -1   4   87.91    1.68
  -5   1  -4   85.23    1.97
  -5   1  -4   88.88    1.77
  -5   1  -4   85.48    1.88
  -5   1  -4   93.98    1.96
   5  -1   4   88.13    1.84
   5  -1   5   22.17    0.93
   5  -1   5   21.30    0.87
   5  -1   5   21.53    0.71
  -5   1  -5   20.31    0.88
   5  -1   5   21.19    0.87
  -5   1  -5   21.14    0.95
  -5   1  -5   21.06    0.84
  -5   1  -5   22.18    0.81
   5  -1   5   21.34    0.79
  -5   1  -5   22.90    0.89
   5  -1   5   21.81    0.88
   5  -1   6    1.24    0.24
  -5   1  -6    1.48    0.22
   5  -1   6    1.70    0.28
   5  -1   6    1.57    0.25
  -5   1  -6    1.41    0.26
  -5   1  -6    1.46    0.27
  -5   1  -6    1.81    0.23
  -5   1  -6    1.48    0.20
   5  -1   6    1.56    0.25
  -5   1  -6    1.29    0.24
   5  -1   7    1.60    0.30
  -5   1  -7    1.52    0.25
   5  -1   7    2.11    0.23
   5  -1   7    1.48    0.26
  -5   1  -7    1.89    0.33
  -5   1  -7    1.68    0.28
   5  -1   7    1.76    0.31
  -5   1  -7    1.63    0.22
   5  -1   7    1.75    0.29
  -5   1  -7    1.86    0.27
  -5   1  -8  122.12    2.65
   5  -1   8  122.05    2.84
   5  -1   8  125.56    2.66
  -5   1  -8  126.24    2.89
  -5   1  -8  124.24    2.59
   5  -1   8  122.13    2.77
   5  -1   8  124.65    2.85
   5  -1   8  131.86    2.88
  -5   1  -9  244.75    4.21
   5  -1   9  239.47    4.04
  -5   1  -9  254.04    4.43
  -5   1  -9  243.88    3.83
   5  -1   9  233.81    4.29
   5  -1   9  241.09    4.49
   5  -1   9  251.94    4.31
  -5   1 -10   35.91    1.15
  -5   1 -10   36.70    1.23
   5  -1  10   34.97    1.21
   5  -1  10   37.53    1.11
   5  -1  10   35.48    1.32
  -5   1 -11    1.69    0.20
  -5   1 -11    1.98    0.22
   5  -1  11    2.00    0.23
   5  -1  11    1.82    0.26
  -5   0   6   52.02    1.35
   5   0  -6   53.73    1.35
  -5   0   6   51.09    1.32
  -5   0   5   29.84    1.17
   5   0  -5   29.29    1.17
  -5   0   5   26.60    1.09
  -5   0   4   25.89    1.16
   5   0  -4   25.59    1.20
  -5   0   4   24.63    1.13
  -5   0   4   24.06    0.79
   5   0  -3   68.34    2.06
  -5   0   3   68.16    1.94
  -5   0   3   65.54    1.79
  -5   0   3   68.30    1.54
  -5   0   3   68.45    1.92
   5   0  -2  269.99    4.76
  -5   0   2  253.70    4.48
  -5   0   2  260.21    3.99
  -5   0   2  270.17    4.46
  -5   0   1   84.66    1.94
   5   0  -1   84.37    2.14
  -5   0   1   83.85    1.80
  -5   0   1   82.24    2.07
  -5   0   1   80.55    1.64
  -5   0   1   88.22    1.75
  -5   0   0    3.05    0.30
   5   0   0    3.58    0.38
  -5   0   0    2.65    0.30
  -5   0   0    2.91    0.34
  -5   0   0    2.52    0.29
  -5   0  -1  184.41    3.02
   5   0   1  184.84    3.25
   5   0   1  179.59    3.02
  -5   0  -1  192.16    2.92
  -5   0  -1  187.32    3.23
   5   0   1  186.62    3.32
  -5   0  -1  185.99    3.29
  -5   0  -1  182.78    3.11
  -5   0  -2   33.57    1.03
   5   0   2   34.62    1.12
   5   0   2   36.86    1.11
   5   0   2   33.63    0.97
  -5   0  -2   37.42    1.05
  -5   0  -2   35.47    1.13
  -5   0  -2   35.84    1.04
  -5   0  -2   37.60    1.12
  -5   0  -3  326.28    4.77
   5   0   3  313.87    4.87
  -5   0  -3  333.02    4.50
   5   0   3  324.43    4.85
   5   0   3  307.15    4.52
  -5   0  -3  320.86    4.90
  -5   0  -3  326.28    4.73
  -5   0  -3  317.58    4.71
  -5   0  -3  338.50    4.91
   5   0   4  153.09    2.77
  -5   0  -4  149.71    2.61
   5   0   4  147.74    2.73
   5   0   4  141.36    2.32
  -5   0  -4  148.19    2.80
  -5   0  -4  151.62    2.73
  -5   0  -4  150.74    2.57
   5   0   4  146.07    2.54
  -5   0  -5   32.30    0.90
   5   0   5   32.93    1.14
   5   0   5   34.84    1.02
  -5   0  -5   31.49    1.09
   5   0   5   32.75    1.12
  -5   0  -5   31.40    1.13
  -5   0  -5   31.78    1.01
  -5   0  -5   32.62    0.91
   5   0   5   33.36    1.03
  -5   0  -5   32.16    0.96
   5   0   5   31.68    1.05
  -5   0  -6   22.53    0.86
   5   0   6   22.15    0.97
   5   0   6   21.99    0.83
  -5   0  -6   21.69    0.97
   5   0   6   21.98    0.96
  -5   0  -6   21.08    0.94
  -5   0  -6   21.88    0.77
   5   0   6   21.68    0.90
   5   0   6   20.65    0.91
  -5   0  -6   21.45    0.77
  -5   0  -7   78.53    1.93
   5   0   7   75.61    1.80
   5   0   7   78.68    1.71
  -5   0  -7   74.30    2.08
  -5   0  -7   74.93    1.94
   5   0   7   79.24    2.12
   5   0   7   79.10    2.05
   5   0   7   76.99    2.02
  -5   0  -8  325.32    5.38
   5   0   8  328.59    5.63
   5   0   8  331.85    5.07
  -5   0  -8  337.39    5.60
  -5   0  -8  336.41    5.19
   5   0   8  320.42    5.49
   5   0   8  346.18    5.68
   5   0   8  311.32    5.39
   5   0   9   95.05    2.01
  -5   0  -9   99.70    2.36
  -5   0  -9   94.81    2.40
  -5   0  -9   98.59    1.97
   5   0   9   94.92    2.40
   5   0   9   93.18    2.25
   5   0   9   94.00    2.49
   5   0  10    2.89    0.29
  -5   0 -10    2.67    0.33
  -5   0 -10    2.47    0.32
   5   0  10    2.81    0.35
   5   0  10    2.72    0.28
   5   0  10    2.50    0.37
   5   0  11    2.99    0.23
  -5   0 -11    2.79    0.27
  -5   0 -11    3.10    0.28
   5   0  11    2.70    0.29
   5   0  11    3.18    0.33
  -5  -1   6  101.86    2.08
   5   1  -6  104.51    2.17
  -5  -1   6  104.40    2.16
  -5  -1   5    1.41    0.27
   5   1  -5    1.69    0.24
   5   1  -5    1.96    0.33
  -5  -1   5    1.63    0.29
  -5  -1   4    1.14    0.25
   5   1  -4    1.35    0.24
   5   1  -4    1.28    0.30
  -5  -1   4    1.23    0.28
  -5  -1   4    1.10    0.21
   5   1  -3   65.48    1.65
   5   1  -3   64.27    2.00
  -5  -1   3   60.70    1.72
  -5  -1   3   63.73    1.89
  -5  -1   3   62.19    1.85
  -5  -1   2   65.17    1.79
   5   1  -2   67.43    1.61
   5   1  -2   67.01    1.98
  -5  -1   2   66.60    1.83
  -5  -1   1   27.00    0.99
   5   1  -1   26.53    0.86
   5   1  -1   26.24    1.11
  -5  -1   1   26.18    0.78
  -5  -1   1   26.08    0.86
  -5  -1   1   26.34    1.08
  -5  -1   0   10.50    0.56
   5   1   0   10.53    0.45
   5   1   0   10.44    0.64
  -5  -1   0   10.30    0.55
  -5  -1   0    9.51    0.61
  -5  -1  -1    8.28    0.48
   5   1   1    7.88    0.51
   5   1   1    7.68    0.52
   5   1   1    7.70    0.44
  -5  -1  -1    8.47    0.40
  -5  -1  -1    8.33    0.50
  -5  -1  -1    8.30    0.48
  -5  -1  -1    8.32    0.53
   5   1   2  375.28    5.55
   5   1   2  391.55    5.29
  -5  -1  -2  383.70    5.38
  -5  -1  -2  382.48    5.62
  -5  -1  -2  387.11    5.46
  -5  -1  -2  381.30    5.49
  -5  -1  -3  582.21    7.60
   5   1   3  562.87    7.66
  -5  -1  -3  565.09    7.31
   5   1   3  549.69    7.67
   5   1   3  574.36    7.27
  -5  -1  -3  550.42    7.64
  -5  -1  -3  565.12    7.57
  -5  -1  -3  557.50    7.44
  -5  -1  -4  123.72    2.31
  -5  -1  -4  122.43    2.29
   5   1   4  121.20    1.91
   5   1   4  127.33    2.43
  -5  -1  -4  125.03    2.48
  -5  -1  -4  132.29    2.45
  -5  -1  -4  124.68    2.01
   5   1   4  124.02    2.41
   5   1   4  123.63    2.01
   5   1   5   34.61    1.15
   5   1   5   33.33    0.92
  -5  -1  -5   35.73    1.15
   5   1   5   33.59    1.14
  -5  -1  -5   36.21    1.21
  -5  -1  -5   34.61    1.05
   5   1   5   36.48    1.09
   5   1   5   33.22    1.08
   5   1   6   16.75    0.84
   5   1   6   17.36    0.65
   5   1   6   17.18    0.75
  -5  -1  -6   17.70    0.87
   5   1   6   17.30    0.86
  -5  -1  -6   17.68    0.86
  -5  -1  -6   17.37    0.67
   5   1   6   17.38    0.79
   5   1   6   17.26    0.82
   5   1   7  125.67    2.85
   5   1   7  130.00    2.46
  -5  -1  -7  125.21    2.82
  -5  -1  -7  128.68    2.69
   5   1   7  127.64    2.77
   5   1   7  127.70    2.73
   5   1   8   49.28    1.37
  -5  -1  -8   52.08    1.65
   5   1   8   52.96    1.35
   5   1   8   50.62    1.72
  -5  -1  -8   49.62    1.68
  -5  -1  -8   51.18    1.47
   5   1   8   50.74    1.60
   5   1   8   48.36    1.66
   5   1   9    4.08    0.39
  -5  -1  -9    3.72    0.43
  -5  -1  -9    3.64    0.44
  -5  -1  -9    3.77    0.33
   5   1   9    3.61    0.44
   5   1   9    3.91    0.41
   5   1   9    3.74    0.47
   5   1  10    4.87    0.40
  -5  -1 -10    4.67    0.45
  -5  -1 -10    5.05    0.45
   5   1  10    4.78    0.46
   5   1  10    4.55    0.35
   5   1  10    4.48    0.48
   5   1  11    6.86    0.39
  -5  -1 -11    6.92    0.43
  -5  -1 -11    7.30    0.41
   5   1  11    6.52    0.44
   5   1  11    7.01    0.49
  -5  -2   6   12.28    0.59
   5   2  -6   11.50    0.52
   5   2  -6   12.62    0.66
  -5  -2   6   12.53    0.65
  -5  -2   5    9.35    0.62
   5   2  -5   10.12    0.60
   5   2  -5    9.64    0.69
  -5  -2   5    8.84    0.67
   5   2  -4    5.83    0.50
   5   2  -4    6.81    0.63
  -5  -2   4    6.10    0.44
  -5  -2   4    5.97    0.57
  -5  -2   4    6.14    0.47
   5   2  -3  104.04    2.35
   5   2  -3  107.06    2.68
  -5  -2   3  105.90    2.20
  -5  -2   3   98.43    2.34
  -5  -2   3  102.78    2.53
  -5  -2   3   98.07    2.45
  -5  -2   2   83.27    2.05
  -5  -2   2   80.17    1.82
   5   2  -2   80.35    1.94
   5   2  -2   82.41    2.22
  -5  -2   2   81.96    2.08
  -5  -2   2   82.60    2.08
  -5  -2   1  181.71    3.23
   5   2  -1  180.29    3.15
   5   2  -1  183.48    3.52
  -5  -2   1  182.09    2.97
   5   2  -1  176.84    3.00
  -5  -2   1  178.56    3.37
  -5  -2   0   93.47    1.96
   5   2   0   90.87    1.88
   5   2   0   94.42    2.18
  -5  -2   0   96.29    1.95
   5   2   0   88.97    1.91
  -5  -2   0   96.49    2.15
  -5  -2  -1  154.17    2.73
   5   2   1  151.97    2.74
   5   2   1  155.11    2.57
   5   2   1  159.70    2.92
   5   2   1  152.38    2.60
  -5  -2  -1  158.19    2.50
  -5  -2  -1  152.71    2.46
  -5  -2  -1  159.13    2.82
  -5  -2  -1  159.38    2.74
   5   2   1  152.26    2.76
  -5  -2  -1  160.13    2.90
  -5  -2  -2  148.84    2.62
   5   2   2  153.97    2.65
   5   2   2  148.76    2.41
   5   2   2  146.65    2.43
   5   2   2  148.35    2.76
  -5  -2  -2  151.70    2.57
  -5  -2  -2  149.58    2.77
  -5  -2  -2  149.28    2.63
   5   2   2  148.04    2.70
  -5  -2  -2  159.93    2.70
  -5  -2  -3   86.58    1.77
   5   2   3   83.39    1.77
   5   2   3   80.45    1.56
   5   2   3   84.58    1.47
   5   2   3   86.39    1.87
  -5  -2  -3   82.44    1.82
  -5  -2  -3   88.72    1.93
  -5  -2  -3   86.31    1.78
  -5  -2  -3   89.58    1.72
  -5  -2  -4   71.84    1.58
   5   2   4   71.59    1.41
   5   2   4   71.92    1.71
  -5  -2  -4   71.85    1.75
  -5  -2  -4   76.50    1.76
  -5  -2  -4   75.66    1.31
   5   2   4   72.07    1.66
   5   2   4   76.68    1.62
   5   2   4   73.26    1.60
   5   2   5   31.90    1.09
   5   2   5   31.90    1.06
   5   2   5   31.97    1.11
  -5  -2  -5   31.54    1.13
  -5  -2  -5   31.11    1.02
   5   2   5   32.78    1.04
   5   2   5   31.99    1.06
   5   2   6    2.38    0.32
   5   2   6    2.79    0.32
   5   2   6    2.30    0.32
  -5  -2  -6    3.74    0.40
  -5  -2  -6    2.73    0.27
   5   2   6    2.96    0.35
   5   2   6    2.71    0.32
   5   2   7   48.08    1.26
   5   2   7   48.74    1.38
  -5  -2  -7   48.38    1.60
   5   2   7   49.65    1.62
  -5  -2  -7   48.56    1.50
   5   2   7   48.17    1.53
   5   2   7   49.44    1.54
   5   2   8   30.21    1.08
   5   2   8   30.11    1.04
   5   2   8   32.00    1.33
  -5  -2  -8   29.22    1.26
  -5  -2  -8   30.65    1.11
   5   2   8   28.74    1.24
   5   2   8   29.70    1.17
   5   2   8   32.61    1.31
   5   2   9   98.41    2.24
  -5  -2  -9   98.56    2.48
   5   2   9  101.89    2.00
  -5  -2  -9  102.57    2.47
  -5  -2  -9  105.26    2.00
   5   2   9   96.08    2.45
   5   2   9   97.94    2.23
   5   2   9   96.15    2.50
   5   2  10   73.65    1.81
  -5  -2 -10   76.58    1.94
  -5  -2 -10   76.45    1.87
   5   2  10   75.52    1.95
   5   2  10   74.92    2.01
   5   2  11   56.72    1.29
  -5  -2 -11   54.78    1.33
  -5  -2 -11   56.56    1.21
   5   2  11   55.70    1.37
   5   2  11   55.59    1.40
  -5  -3   6   10.34    0.50
   5   3  -6   10.16    0.51
   5   3  -6    9.70    0.55
  -5  -3   6   10.12    0.57
  -5  -3   5    5.53    0.45
   5   3  -5    4.53    0.42
   5   3  -5    5.12    0.49
  -5  -3   5    4.30    0.37
  -5  -3   5    5.04    0.34
   5   3  -4   62.56    1.80
   5   3  -4   67.19    2.03
  -5  -3   4   64.43    1.70
  -5  -3   4   64.01    1.69
  -5  -3   4   64.44    1.97
   5   3  -3  118.35    2.64
   5   3  -3  112.67    2.77
  -5  -3   3  115.25    2.50
  -5  -3   3  111.72    2.53
  -5  -3   3  109.83    2.66
  -5  -3   3  114.44    2.46
  -5  -3   3  108.72    2.56
  -5  -3   2  172.07    3.25
  -5  -3   2  174.19    3.16
   5   3  -2  170.40    3.31
   5   3  -2  167.21    3.48
  -5  -3   2  169.25    3.08
   5   3  -2  167.60    2.99
  -5  -3   2  171.05    3.36
  -5  -3   2  167.50    3.30
  -5  -3   1  101.85    2.17
   5   3  -1  100.89    2.26
   5   3  -1  100.56    2.38
  -5  -3   1   99.34    1.98
  -5  -3   1  101.87    1.99
   5   3  -1  101.80    2.18
  -5  -3   1  103.17    2.34
  -5  -3   0   94.75    1.97
   5   3   0   94.07    1.93
   5   3   0   92.80    2.05
   5   3   0   95.05    2.19
  -5  -3   0   96.83    2.00
   5   3   0   94.83    2.10
  -5  -3   0   93.51    2.17
   5   3   1   34.17    1.00
   5   3   1   32.69    1.03
  -5  -3  -1   35.21    0.98
   5   3   1   34.09    0.93
   5   3   1   34.97    1.15
  -5  -3  -1   34.00    0.93
  -5  -3  -1   33.25    0.83
  -5  -3  -1   33.08    1.08
   5   3   1   33.77    1.13
  -5  -3  -1   35.34    1.16
  -5  -3  -2   19.31    0.73
   5   3   2   17.92    0.68
   5   3   2   19.38    0.73
   5   3   2   18.54    0.59
   5   3   2   19.67    0.80
  -5  -3  -2   20.03    0.83
  -5  -3  -2   20.04    0.74
   5   3   2   19.23    0.81
  -5  -3  -2   20.23    0.79
   5   3   2   18.43    0.74
  -5  -3  -3  149.32    2.56
   5   3   3  147.93    2.55
   5   3   3  143.41    2.53
   5   3   3  141.31    2.55
   5   3   3  150.44    2.73
  -5  -3  -3  149.12    2.82
  -5  -3  -3  150.99    2.61
   5   3   3  149.43    2.77
  -5  -3  -3  155.99    2.54
   5   3   4   59.66    1.13
  -5  -3  -4   53.67    1.26
   5   3   4   58.08    1.51
   5   3   4   56.82    1.47
  -5  -3  -4   56.07    1.54
  -5  -3  -4   55.00    1.51
   5   3   4   55.60    1.43
   5   3   4   57.51    1.31
   5   3   4   52.84    1.22
   5   3   4   56.56    1.39
   5   3   5  113.66    2.34
   5   3   5  114.48    2.39
   5   3   5  115.21    2.41
  -5  -3  -5  113.16    2.51
  -5  -3  -5  126.95    2.42
   5   3   5  115.55    2.08
   5   3   5  118.28    2.41
   5   3   5  122.76    2.35
   5   3   6   26.12    0.84
   5   3   6   25.21    1.03
   5   3   6   26.23    1.02
  -5  -3  -6   25.97    1.07
   5   3   6   25.62    1.07
  -5  -3  -6   25.98    0.88
   5   3   6   25.92    0.76
   5   3   6   25.31    1.03
   5   3   6   25.44    1.00
   5   3   7    1.50    0.24
   5   3   7    1.69    0.29
   5   3   7    1.64    0.27
  -5  -3  -7    1.91    0.30
   5   3   7    1.67    0.28
   5   3   7    2.18    0.32
   5   3   8  251.53    4.32
   5   3   8  260.72    4.32
  -5  -3  -8  261.50    4.68
  -5  -3  -8  266.50    4.30
   5   3   8  259.61    4.60
   5   3   8  257.90    4.46
   5   3   8  255.59    4.54
   5   3   9  126.12    2.70
   5   3   9  131.14    2.49
  -5  -3  -9  130.02    2.84
  -5  -3  -9  135.44    2.34
   5   3   9  124.37    2.80
   5   3   9  125.51    2.54
   5   3   9  128.31    2.85
   5   3  10   18.15    0.83
  -5  -3 -10   19.11    0.88
  -5  -3 -10   19.30    0.82
   5   3  10   17.73    0.82
   5   3  10   17.82    0.84
   5   3  11    1.77    0.21
  -5  -3 -11    1.66    0.21
  -5  -3 -11    1.18    0.17
   5   3  11    1.52    0.19
  -5  -4   6   92.96    1.74
  -5  -4   6   99.07    1.70
   5   4  -6   93.30    1.86
   5   4  -6   98.40    1.90
  -5  -4   6   96.22    1.91
   5   4  -5   89.98    2.10
  -5  -4   5   89.72    2.01
   5   4  -5   89.74    2.11
  -5  -4   5   93.01    1.78
   5   4  -4   19.36    0.96
   5   4  -4   19.55    0.99
  -5  -4   4   19.64    0.88
  -5  -4   4   20.67    0.94
  -5  -4   4   19.58    0.87
  -5  -4   4   19.95    1.02
   5   4  -3   24.30    1.13
   5   4  -3   25.41    1.16
  -5  -4   3   24.15    0.97
   5   4  -3   27.30    0.98
  -5  -4   3   23.74    1.06
  -5  -4   3   24.28    1.11
  -5  -4   3   23.90    1.05
  -5  -4   3   21.55    1.00
  -5  -4   2  103.47    2.37
   5   4  -2  107.84    2.54
   5   4  -2  102.05    2.48
  -5  -4   2  103.08    2.14
   5   4  -2   99.03    2.28
  -5  -4   2  101.41    2.46
  -5  -4   2   99.94    2.34
  -5  -4   2  101.29    2.27
  -5  -4   1   49.11    1.37
   5   4  -1   48.36    1.20
   5   4  -1   47.80    1.55
   5   4  -1   46.18    1.49
  -5  -4   1   48.72    1.17
  -5  -4   1   46.31    1.27
   5   4  -1   47.97    1.49
  -5  -4   1   47.27    1.54
  -5  -4   1   49.31    1.42
  -5  -4   0   41.03    1.17
   5   4   0   42.92    1.13
   5   4   0   42.39    1.38
   5   4   0   42.11    1.34
  -5  -4   0   41.87    1.24
   5   4   0   43.85    1.41
  -5  -4   0   42.01    1.40
  -5  -4  -1    8.39    0.45
   5   4   1    7.57    0.53
   5   4   1    7.86    0.52
  -5  -4  -1    8.83    0.56
   5   4   1    7.92    0.56
  -5  -4  -1    9.08    0.59
  -5  -4  -2   21.90    0.75
   5   4   2   22.25    0.89
  -5  -4  -2   22.50    0.72
   5   4   2   21.52    0.84
  -5  -4  -2   22.04    0.92
   5   4   2   21.46    0.73
   5   4   2   23.10    0.96
  -5  -4  -2   23.11    0.89
  -5  -4  -3  175.10    2.79
   5   4   3  177.59    2.77
   5   4   3  185.33    3.11
   5   4   3  168.92    3.12
   5   4   3  177.01    3.08
  -5  -4  -3  178.76    2.82
  -5  -4  -3  183.63    3.34
   5   4   3  175.90    3.25
   5   4   3  184.97    3.13
  -5  -4  -3  181.50    2.98
   5   4   3  181.75    3.15
   5   4   4  317.08    4.70
   5   4   4  336.81    5.07
   5   4   4  316.22    4.89
  -5  -4  -4  330.40    5.16
  -5  -4  -4  321.41    4.65
   5   4   4  333.74    5.05
   5   4   4  314.23    4.87
   5   4   4  326.81    4.45
   5   4   5   45.07    1.15
   5   4   5   44.71    1.41
   5   4   5   45.78    1.28
   5   4   5   45.44    1.35
  -5  -4  -5   44.89    1.36
   5   4   5   44.00    1.25
   5   4   5   44.54    1.40
   5   4   6   38.61    1.17
   5   4   6   36.02    1.30
   5   4   6   36.28    1.24
  -5  -4  -6   37.52    1.35
  -5  -4  -6   38.17    1.16
   5   4   6   40.18    1.17
   5   4   6   37.17    1.33
   5   4   7    1.83    0.28
   5   4   7    2.24    0.33
  -5  -4  -7    2.76    0.36
   5   4   7    2.52    0.33
   5   4   7    1.82    0.23
   5   4   7    2.00    0.32
   5   4   8  170.11    3.34
   5   4   8  176.93    3.38
  -5  -4  -8  173.40    3.53
  -5  -4  -8  178.53    3.22
   5   4   8  173.49    3.38
   5   4   8  174.12    3.37
   5   4   9   49.78    1.55
   5   4   9   50.76    1.43
  -5  -4  -9   50.48    1.56
   5   4   9   47.18    1.45
   5   4  10    1.00    0.20
  -5  -4 -10    1.19    0.23
  -5  -4 -10    0.99    0.19
   5   4  10    0.97    0.18
  -5  -4 -11    2.49    0.21
   5   4  11    3.02    0.25
  -5  -5   6  101.35    1.84
   5   5  -6  103.60    1.89
  -5  -5   6   99.43    1.75
   5   5  -5    1.08    0.21
   5   5  -5    0.84    0.17
  -5  -5   5    0.94    0.20
  -5  -5   5    0.99    0.16
  -5  -5   5    1.09    0.19
   5   5  -4    2.55    0.36
   5   5  -4    2.14    0.30
  -5  -5   4    2.09    0.33
   5   5  -4    2.16    0.26
  -5  -5   4    2.19    0.29
   5   5  -3   11.13    0.57
   5   5  -3   11.26    0.77
   5   5  -3   10.50    0.69
  -5  -5   3   11.25    0.61
   5   5  -3   11.08    0.68
  -5  -5   3   10.91    0.72
  -5  -5   3   11.13    0.72
  -5  -5   3   10.67    0.72
  -5  -5   2   45.56    1.53
   5   5  -2   46.22    1.31
   5   5  -2   49.15    1.69
   5   5  -2   48.45    1.53
  -5  -5   2   48.61    1.28
   5   5  -2   46.53    1.55
  -5  -5   2   46.00    1.60
  -5  -5   2   45.36    1.45
   5   5  -2   48.01    1.31
  -5  -5   2   45.56    1.37
  -5  -5   1  198.18    3.34
   5   5  -1  200.91    3.40
   5   5  -1  193.91    3.84
   5   5  -1  194.75    3.54
  -5  -5   1  191.19    3.60
  -5  -5   1  193.76    3.33
   5   5  -1  193.25    3.76
  -5  -5   1  194.44    3.79
  -5  -5   1  182.74    3.33
   5   5   0    0.89    0.20
   5   5   0    0.95    0.23
   5   5   0    0.85    0.19
   5   5   0    1.79    0.31
  -5  -5   0    1.10    0.21
  -5  -5   0    1.36    0.19
  -5  -5   0    2.11    0.32
   5   5   0    1.08    0.22
  -5  -5  -1   14.10    0.56
   5   5   1   16.15    0.85
   5   5   1   14.49    0.69
  -5  -5  -1   15.12    0.78
   5   5   1   14.40    0.83
  -5  -5  -1   14.56    0.79
   5   5   1   14.63    0.74
   5   5   2  198.42    3.19
   5   5   2  197.55    3.63
   5   5   2  191.73    3.27
  -5  -5  -2  197.52    3.66
   5   5   2  197.67    3.67
  -5  -5  -2  198.01    3.50
   5   5   2  201.54    3.57
   5   5   3  283.89    4.48
   5   5   3  268.89    4.62
   5   5   3  276.73    4.28
  -5  -5  -3  287.77    4.80
   5   5   3  278.77    4.69
  -5  -5  -3  286.03    4.35
   5   5   3  281.58    4.58
   5   5   3  283.54    4.14
   5   5   4  151.46    2.77
  -5  -5  -4  163.32    3.21
   5   5   4  155.74    3.02
   5   5   4  158.91    3.06
   5   5   4  153.67    2.98
   5   5   4  156.59    2.73
   5   5   5   16.87    0.89
  -5  -5  -5   18.63    0.90
  -5  -5  -5   17.38    0.68
   5   5   5   16.97    0.81
   5   5   5   17.13    0.75
   5   5   6    1.69    0.26
   5   5   6    1.89    0.32
   5   5   6    1.57    0.26
   5   5   7   67.35    1.83
   5   5   7   64.13    1.93
  -5  -5  -7   67.87    1.87
   5   5   7   67.41    1.67
   5   5   7   64.33    1.69
   5   5   8   24.97    1.08
   5   5   8   26.43    1.13
  -5  -5  -8   26.29    0.99
   5   5   8   24.37    0.96
   5   5   9   87.46    2.14
   5   5   9   88.65    2.03
  -5  -5  -9   89.43    2.09
  -5  -5 -10    2.53    0.29
  -5  -5 -10    2.76    0.26
   5   5  10    2.30    0.28
  -5  -6   5    4.51    0.27
   5   6  -5    4.14    0.36
  -5  -6   5    4.44    0.38
  -5  -6   5    4.34    0.28
  -5  -6   4    2.27    0.33
   5   6  -4    2.51    0.28
  -5  -6   4    2.56    0.30
  -5  -6   4    2.69    0.27
   5   6  -4    2.22    0.32
   5   6  -3  186.95    3.21
   5   6  -3  177.56    3.67
   5   6  -3  176.61    3.15
   5   6  -3  184.00    3.51
  -5  -6   3  187.58    3.56
  -5  -6   3  177.18    3.56
  -5  -6   2   82.74    2.22
   5   6  -2   83.93    2.00
   5   6  -2   84.24    2.36
   5   6  -2   81.94    1.94
   5   6  -2   86.20    2.30
  -5  -6   2   85.95    2.28
   5   6  -2   86.96    1.79
   5   6  -1  137.12    2.81
   5   6  -1  138.45    3.17
  -5  -6   1  137.48    2.96
   5   6  -1  136.47    2.62
  -5  -6   1  135.53    2.65
   5   6  -1  135.52    3.12
  -5  -6   1  132.71    3.05
   5   6  -1  136.57    2.64
  -5  -6   0   28.66    1.13
   5   6   0   26.96    1.23
  -5  -6   0   27.39    1.21
   5   6   0   28.43    1.07
   5   6   0   27.47    1.25
   5   6   1   63.06    1.93
  -5  -6  -1   64.11    1.85
   5   6   1   63.87    1.95
  -5  -6  -1   63.69    1.85
   5   6   1   63.93    1.77
   5   6   2  135.79    2.51
   5   6   2  134.35    2.51
   5   6   2  132.18    2.96
   5   6   2  137.64    3.03
  -5  -6  -2  142.18    2.87
   5   6   2  142.29    2.95
   5   6   3   99.20    2.21
   5   6   3   97.98    1.88
   5   6   3   97.78    2.38
   5   6   3   99.71    2.39
  -5  -6  -3   99.68    2.12
   5   6   3   99.43    2.10
   5   6   4    5.32    0.49
  -5  -6  -4    5.16    0.52
   5   6   4    5.09    0.47
   5   6   4    5.91    0.52
   5   6   4    4.80    0.41
   5   6   5    2.98    0.40
  -5  -6  -5    2.83    0.38
   5   6   5    2.74    0.37
   5   6   5    2.70    0.33
   5   6   6   36.15    1.46
  -5  -6  -6   39.42    1.27
   5   6   6   36.89    1.32
   5   6   6   37.55    1.32
   5   6   7   43.35    1.60
  -5  -6  -7   43.36    1.45
   5   6   7   42.87    1.37
   5   6   7   42.66    1.45
   5   6   8   58.32    1.77
   5   6   8   59.90    1.48
  -5  -6  -8   60.09    1.51
   5   6   8   59.50    1.73
   5   6   9   57.98    1.51
  -5  -6  -9   56.61    1.45
   5   6   9   55.07    1.55
  -5  -6 -10   13.34    0.56
   5   6  10   15.45    0.63
  -5  -7   5   30.88    0.94
   5   7  -5   29.62    0.88
   5   7  -4  117.67    1.98
   5   7  -4  116.59    2.42
  -5  -7   4  115.72    2.43
   5   7  -4  116.35    2.23
  -5  -7   4  116.00    2.23
   5   7  -3  102.71    2.16
   5   7  -3  106.05    2.51
   5   7  -3  109.56    2.44
  -5  -7   3  105.02    2.45
  -5  -7   3   98.64    2.33
   5   7  -2   95.22    2.23
   5   7  -2   93.98    2.52
   5   7  -2   97.12    2.49
  -5  -7   2   93.73    2.39
  -5  -7   2   92.10    2.34
   5   7  -1    3.79    0.43
   5   7  -1    2.78    0.42
  -5  -7   1    2.44    0.31
   5   7  -1    2.77    0.42
   5   7  -1    2.93    0.32
  -5  -7   1    2.27    0.37
  -5  -7   1    2.30    0.35
   5   7   0  116.71    2.97
  -5  -7   0  144.12    2.96
  -5  -7   0  120.93    2.73
   5   7   0  128.34    3.07
   5   7   0  135.26    2.73
  -5  -7   0  122.27    2.95
   5   7   1    2.14    0.31
   5   7   1    2.69    0.41
  -5  -7  -1    2.19    0.35
   5   7   1    2.35    0.39
   5   7   1    2.20    0.33
  -5  -7  -1    2.14    0.34
   5   7   2   10.28    0.56
   5   7   2    9.08    0.59
   5   7   2   10.19    0.75
   5   7   2    9.19    0.71
   5   7   2   10.05    0.71
  -5  -7  -2    9.13    0.63
   5   7   3   11.52    0.68
   5   7   3   11.38    0.63
   5   7   3   10.87    0.73
   5   7   3   11.20    0.78
  -5  -7  -3   11.47    0.64
   5   7   3   11.11    0.67
   5   7   4   16.03    0.90
   5   7   4   19.04    0.77
  -5  -7  -4   20.68    1.08
   5   7   4   19.48    1.03
   5   7   4   17.08    0.86
   5   7   5   54.43    1.79
  -5  -7  -5   55.84    1.75
   5   7   5   51.86    1.73
   5   7   5   53.09    1.62
   5   7   6   77.44    2.24
  -5  -7  -6   78.75    1.91
   5   7   6   75.36    2.09
   5   7   6   76.93    2.05
   5   7   7   41.69    1.54
   5   7   7   40.91    1.37
  -5  -7  -7   45.64    1.43
   5   7   7   42.51    1.44
   5   7   8   40.96    1.38
   5   7   8   38.50    1.12
  -5  -7  -8   40.08    1.07
   5   7   8   39.83    1.31
   5   7   9   22.05    0.81
  -5  -7  -9   22.32    0.71
   5   7   9   22.00    0.84
   5   8  -4   16.82    0.67
  -5  -8   4   18.36    0.72
   5   8  -4   17.79    0.64
  -5  -8   4   17.92    0.64
   5   8  -3   10.17    0.62
  -5  -8   3   10.53    0.62
   5   8  -3    9.79    0.59
  -5  -8   3    9.60    0.57
   5   8  -2    1.82    0.31
   5   8  -2    1.33    0.27
  -5  -8   2    1.56    0.28
  -5  -8   2    1.69    0.28
   5   8  -1   15.04    0.92
  -5  -8   1   14.43    0.70
   5   8  -1   16.53    0.67
   5   8  -1   16.10    0.94
  -5  -8   1   15.61    0.89
  -5  -8   1   15.11    0.83
  -5  -8   0   22.17    1.01
   5   8   0   21.35    1.12
  -5  -8   0   21.34    0.98
   5   8   0   22.40    1.14
   5   8   0   21.09    0.91
  -5  -8   0   22.41    1.09
   5   8   0   21.89    1.06
   5   8   1    8.31    0.63
   5   8   1    8.58    0.71
  -5  -8  -1    9.13    0.62
  -5  -8  -1    8.01    0.65
   5   8   1    8.67    0.70
   5   8   1    8.70    0.63
  -5  -8  -1    8.46    0.65
   5   8   2   13.33    0.76
  -5  -8  -2   13.42    0.73
   5   8   2   13.41    0.85
   5   8   2   14.05    0.86
  -5  -8  -2   14.56    0.80
   5   8   3  130.27    2.63
   5   8   3  122.06    2.59
   5   8   3  127.09    3.02
   5   8   3  132.34    2.81
   5   8   4  157.74    3.20
   5   8   4  150.75    2.87
  -5  -8  -4  159.09    3.42
   5   8   4  152.45    3.44
   5   8   4  157.52    3.18
   5   8   5  124.61    2.83
   5   8   5  116.80    2.29
  -5  -8  -5  123.73    2.74
   5   8   5  117.92    2.86
   5   8   5  119.95    2.68
   5   8   6    1.16    0.25
   5   8   6    1.15    0.28
  -5  -8  -6    1.46    0.24
   5   8   6    1.22    0.27
   5   8   7    7.15    0.57
   5   8   7    7.04    0.52
  -5  -8  -7    7.22    0.48
   5   8   7    7.09    0.53
   5   8   8   34.81    1.14
  -5  -8  -8   34.34    0.99
   5   8   8   35.61    1.10
   5   9  -3   15.46    0.67
   5   9  -3   14.92    0.60
  -5  -9   3   15.15    0.61
   5   9  -3   14.85    0.62
  -5  -9   3   14.57    0.60
   5   9  -2   62.43    1.66
   5   9  -2   62.35    1.57
  -5  -9   2   64.34    1.53
   5   9  -2   60.97    1.61
  -5  -9   2   59.96    1.55
   5   9  -1   75.72    1.98
   5   9  -1   77.99    1.96
   5   9  -1   81.10    2.05
  -5  -9   1   74.62    1.75
  -5  -9   1   75.14    1.90
   5   9   0   21.54    1.02
   5   9   0   23.23    1.06
  -5  -9   0   21.61    0.90
   5   9   0   23.49    0.85
   5   9   0   23.55    1.07
  -5  -9   0   22.76    1.00
  -5  -9   0   21.88    0.87
   5   9   1   34.96    1.31
  -5  -9  -1   33.94    1.29
   5   9   1   36.37    1.25
   5   9   1   38.67    1.39
  -5  -9  -1   36.33    1.28
  -5  -9  -1   36.30    1.11
   5   9   2   92.59    2.25
  -5  -9  -2   93.05    2.43
   5   9   2  101.74    2.41
   5   9   2  105.64    2.36
  -5  -9  -2   95.33    2.15
   5   9   3  156.37    2.80
   5   9   3  153.53    2.99
   5   9   3  152.45    3.29
   5   9   4   39.27    1.28
   5   9   4   38.39    1.19
  -5  -9  -4   39.58    1.42
   5   9   4   41.09    1.52
   5   9   5    4.79    0.45
   5   9   5    4.50    0.48
  -5  -9  -5    3.75    0.38
   5   9   6    2.30    0.32
   5   9   6    2.38    0.32
   5   9   6    2.34    0.31
   5   9   7    9.42    0.56
   5   9   7    9.94    0.53
   5   9   7    9.54    0.53
   5  10  -2  137.18    2.36
   5  10  -1   24.51    0.88
   5  10  -1   25.73    0.87
  -5 -10   1   22.95    0.80
   5  10   0    0.51    0.16
   5  10   0    0.69    0.17
  -5 -10   0    0.71    0.15
  -5 -10   0    0.82    0.17
   5  10   1   21.38    0.89
   5  10   1   21.22    0.76
  -5 -10  -1   20.17    0.82
  -5 -10  -1   20.28    0.77
   5  10   2   31.59    1.07
  -5 -10  -2   28.97    1.07
   5  10   2   30.75    1.05
   5  10   3   29.09    0.96
   5  10   3   29.79    1.09
  -5 -10  -3   27.51    1.05
   5  10   4    5.27    0.46
  -5 -10  -4    5.50    0.43
   5  10   5    3.19    0.34
  -6   7  -1   10.68    0.45
  -6   7  -1   12.08    0.53
  -6   7  -2   16.60    0.59
   6  -7   2   17.81    0.70
  -6   7  -2   16.41    0.62
  -6   7  -2   17.68    0.69
  -6   7  -3    6.25    0.34
   6  -7   3    6.90    0.43
  -6   7  -3    6.33    0.39
  -6   7  -3    6.18    0.43
  -6   7  -3    7.20    0.42
  -6   7  -4   32.76    0.76
   6  -7   4   35.72    0.92
   6  -7   4   37.07    1.03
  -6   7  -4   34.18    1.04
  -6   7  -4   35.05    1.08
  -6   7  -4   34.64    1.00
  -6   7  -4   35.82    0.96
   6  -7   5   39.56    0.98
   6  -7   5   40.65    1.02
  -6   7  -5   38.24    1.08
  -6   7  -5   39.17    1.10
  -6   7  -6   38.73    1.06
   6  -7   6   37.13    0.91
  -6   6   1    0.87    0.15
  -6   6   1    0.73    0.15
  -6   6   0   13.84    0.61
  -6   6   0   14.71    0.71
  -6   6  -1   38.57    1.12
   6  -6   1   38.91    1.13
  -6   6  -1   38.10    1.17
  -6   6  -1   41.01    1.31
  -6   6  -2   24.36    0.87
   6  -6   2   24.41    0.93
  -6   6  -2   23.14    0.90
  -6   6  -2   24.00    1.00
  -6   6  -2   22.96    0.88
  -6   6  -2   24.35    1.03
  -6   6  -3   24.62    0.85
   6  -6   3   25.87    1.01
   6  -6   3   25.48    1.03
  -6   6  -3   26.01    1.04
  -6   6  -3   24.61    1.06
  -6   6  -3   25.11    1.01
  -6   6  -3   26.36    1.08
  -6   6  -4   12.21    0.55
   6  -6   4   12.68    0.70
   6  -6   4   12.95    0.69
  -6   6  -4   12.73    0.74
  -6   6  -4   12.14    0.74
  -6   6  -4   12.59    0.74
   6  -6   4   12.02    0.54
  -6   6  -4   12.51    0.72
   6  -6   5  175.78    3.23
   6  -6   5  176.85    3.10
  -6   6  -5  172.87    3.31
  -6   6  -5  170.54    3.31
  -6   6  -5  180.09    3.43
  -6   6  -5  181.58    3.43
   6  -6   5  171.80    3.00
   6  -6   6   98.29    2.12
   6  -6   6   98.47    1.97
  -6   6  -6   98.63    2.15
  -6   6  -6   95.83    2.12
  -6   6  -6   96.39    2.28
  -6   6  -6   99.93    2.30
   6  -6   6  101.37    2.09
   6  -6   7   24.27    0.86
   6  -6   7   23.00    0.70
  -6   6  -7   22.78    0.69
  -6   6  -7   21.53    0.78
  -6   6  -7   23.39    0.95
  -6   6  -7   24.88    0.97
   6  -6   7   24.30    0.87
   6  -6   8    5.02    0.34
  -6   6  -8    5.15    0.39
  -6   6  -8    5.19    0.37
  -6   5   2    0.62    0.15
  -6   5   1    1.81    0.27
  -6   5   1    1.46    0.22
  -6   5   0  129.22    2.55
  -6   5   0  130.79    2.60
  -6   5   0  137.59    2.87
  -6   5  -1  145.05    2.76
  -6   5  -1  141.73    2.80
  -6   5  -1  144.52    3.01
  -6   5  -1  147.24    2.85
  -6   5  -1  150.66    3.14
  -6   5  -2   80.80    1.83
  -6   5  -2   77.29    2.07
  -6   5  -2   78.95    2.18
  -6   5  -2   80.40    2.06
  -6   5  -2   78.78    2.16
  -6   5  -3    3.55    0.33
   6  -5   3    3.57    0.43
  -6   5  -3    3.00    0.41
  -6   5  -3    3.38    0.41
  -6   5  -3    3.59    0.45
  -6   5  -3    3.65    0.43
  -6   5  -4   18.28    0.72
   6  -5   4   18.33    0.96
   6  -5   4   18.96    0.91
  -6   5  -4   17.34    0.95
  -6   5  -4   17.88    0.98
  -6   5  -4   17.33    0.98
  -6   5  -4   17.56    0.97
  -6   5  -4   19.49    1.01
   6  -5   4   17.93    0.76
   6  -5   5   88.09    2.26
   6  -5   5   85.04    2.06
  -6   5  -5   87.23    2.29
  -6   5  -5   88.57    2.31
  -6   5  -5   86.94    2.27
  -6   5  -5   88.29    2.37
   6  -5   5   83.81    2.02
   6  -5   6   49.64    1.58
   6  -5   6   49.01    1.39
  -6   5  -6   47.20    1.35
  -6   5  -6   49.10    1.59
  -6   5  -6   50.10    1.58
  -6   5  -6   50.28    1.55
  -6   5  -6   48.24    1.64
   6  -5   6   48.99    1.50
   6  -5   7    5.78    0.48
   6  -5   7    5.50    0.40
  -6   5  -7    6.32    0.46
  -6   5  -7    5.99    0.49
  -6   5  -7    5.43    0.44
  -6   5  -7    5.07    0.41
  -6   5  -7    5.55    0.51
   6  -5   7    5.84    0.49
   6  -5   8    0.58    0.17
   6  -5   8    0.45    0.14
  -6   5  -8    0.50    0.15
  -6   5  -8    0.50    0.14
  -6   5  -8    0.43    0.12
  -6   5  -8    0.69    0.19
   6  -5   9    9.57    0.49
  -6   5  -9    8.95    0.45
  -6   4   3    0.53    0.13
   6  -4  -3    0.68    0.14
  -6   4   3    0.97    0.17
  -6   4   2    1.30    0.22
  -6   4   2    0.73    0.17
   6  -4  -2    0.66    0.17
  -6   4   2    0.91    0.20
   6  -4  -1   93.94    2.16
  -6   4   1   93.16    2.06
  -6   4   1   96.97    2.28
  -6   4   1   91.30    2.07
  -6   4   0  240.45    4.04
   6  -4   0  246.41    4.22
  -6   4   0  239.16    3.95
  -6   4   0  242.05    4.29
  -6   4   0  243.04    4.38
  -6   4  -1  109.29    2.28
   6  -4   1  113.86    2.49
  -6   4  -1  108.32    2.51
  -6   4  -1  108.06    2.66
  -6   4  -1  112.62    2.55
  -6   4  -1  109.53    2.63
  -6   4  -2    0.66    0.17
   6  -4   2    0.65    0.19
  -6   4  -2    0.80    0.23
  -6   4  -2    0.56    0.21
  -6   4  -3    9.40    0.52
   6  -4   3    9.79    0.61
  -6   4  -3    9.35    0.73
  -6   4  -3   10.68    0.75
  -6   4  -3    9.00    0.73
  -6   4  -3    9.11    0.72
  -6   4  -3    8.83    0.68
  -6   4  -3    9.22    0.69
   6  -4   4   23.77    0.95
   6  -4   4   22.75    1.12
  -6   4  -4   23.48    1.17
  -6   4  -4   21.45    1.10
  -6   4  -4   21.76    1.11
  -6   4  -4   21.93    1.11
  -6   4  -4   21.63    1.10
  -6   4  -4   23.81    1.15
   6  -4   4   22.24    0.92
   6  -4   5  144.09    2.73
   6  -4   5  146.03    3.15
   6  -4   5  139.39    2.85
  -6   4  -5  137.50    2.71
  -6   4  -5  137.85    3.15
  -6   4  -5  139.03    3.19
  -6   4  -5  135.34    3.07
  -6   4  -5  144.20    3.23
   6  -4   5  133.79    2.84
   6  -4   6   35.40    1.14
   6  -4   6   34.21    1.36
   6  -4   6   35.72    1.20
  -6   4  -6   35.78    1.24
  -6   4  -6   34.40    1.40
  -6   4  -6   37.14    1.40
  -6   4  -6   33.24    1.28
  -6   4  -6   36.98    1.47
   6  -4   6   36.83    1.36
   6  -4   7   41.77    1.19
   6  -4   7   40.65    1.43
   6  -4   7   41.77    1.23
  -6   4  -7   42.71    1.39
  -6   4  -7   41.40    1.45
  -6   4  -7   40.98    1.36
  -6   4  -7   40.97    1.28
  -6   4  -7   40.87    1.50
   6  -4   7   41.47    1.47
   6  -4   8   39.28    1.30
  -6   4  -8   38.22    1.27
  -6   4  -8   38.62    1.25
  -6   4  -8   34.94    1.06
   6  -4   8   40.08    1.36
  -6   4  -8   37.24    1.31
   6  -4   9  114.84    2.23
  -6   4  -9  120.53    2.29
  -6   4  -9  110.57    2.02
   6  -4   9  121.23    2.37
  -6   4  -9  110.36    2.19
  -6   3   4   45.99    1.18
   6  -3  -4   48.16    1.14
  -6   3   4   44.69    1.03
  -6   3   3   15.63    0.76
   6  -3  -3   18.34    0.83
  -6   3   3   16.78    0.73
  -6   3   2    9.91    0.64
   6  -3  -2   10.03    0.69
  -6   3   2    9.78    0.55
  -6   3   2   10.59    0.57
  -6   3   2   10.64    0.65
  -6   3   2    9.81    0.60
  -6   3   1  147.72    2.96
  -6   3   1  151.23    3.06
   6  -3  -1  161.85    3.35
  -6   3   1  158.73    3.16
  -6   3   1  152.05    2.94
  -6   3   0   34.72    1.16
  -6   3   0   34.77    1.14
   6  -3   0   38.09    1.44
  -6   3   0   35.10    1.37
  -6   3   0   36.65    1.37
  -6   3   0   38.00    1.35
  -6   3   0   36.95    1.35
  -6   3  -1   46.10    1.31
   6  -3   1   48.21    1.62
  -6   3  -1   49.85    1.71
  -6   3  -1   48.32    1.67
  -6   3  -1   49.71    1.61
  -6   3  -1   51.02    1.60
  -6   3  -2   19.08    0.73
   6  -3   2   18.96    0.95
  -6   3  -2   20.04    0.91
  -6   3  -2   18.50    1.04
  -6   3  -2   19.63    1.04
  -6   3  -2   20.59    1.01
   6  -3   3   32.98    1.23
  -6   3  -3   29.39    1.24
  -6   3  -3   29.45    1.32
  -6   3  -3   29.98    1.29
  -6   3  -3   30.60    1.26
  -6   3  -3   30.39    1.23
   6  -3   3   29.82    0.93
   6  -3   4  214.10    3.82
  -6   3  -4  200.04    4.00
  -6   3  -4  205.43    4.01
  -6   3  -4  201.57    3.99
  -6   3  -4  210.68    4.00
   6  -3   4  201.94    3.57
   6  -3   5  162.84    3.16
   6  -3   5  154.47    2.99
  -6   3  -5  158.87    3.00
  -6   3  -5  163.39    3.44
   6  -3   5  156.78    3.33
  -6   3  -5  153.30    3.39
  -6   3  -5  157.75    3.30
  -6   3  -5  156.82    3.28
  -6   3  -5  157.22    3.41
   6  -3   5  162.58    3.19
   6  -3   6   92.66    2.20
   6  -3   6   90.17    2.36
   6  -3   6   92.97    2.07
  -6   3  -6   93.15    2.24
  -6   3  -6   89.31    1.96
  -6   3  -6  100.44    2.43
  -6   3  -6   90.48    2.44
  -6   3  -6   91.90    2.18
  -6   3  -6   89.06    2.20
  -6   3  -6   94.30    2.46
   6  -3   6   94.26    2.35
   6  -3   7   31.62    1.17
   6  -3   7   31.48    1.27
   6  -3   7   33.16    1.06
  -6   3  -7   31.65    1.25
  -6   3  -7   32.02    1.32
  -6   3  -7   28.85    1.03
  -6   3  -7   32.03    1.19
  -6   3  -7   29.21    1.05
   6  -3   7   32.04    1.02
   6  -3   7   29.98    0.97
  -6   3  -7   32.19    1.31
   6  -3   7   33.61    1.34
   6  -3   8   27.76    1.12
  -6   3  -8   27.61    1.14
  -6   3  -8   29.95    1.16
  -6   3  -8   24.24    0.91
  -6   3  -8   26.51    0.91
   6  -3   8   27.50    0.89
   6  -3   8   26.08    0.94
   6  -3   8   29.12    1.21
  -6   3  -8   27.41    1.11
   6  -3   9   17.78    0.79
  -6   3  -9   19.02    0.87
  -6   3  -9   18.28    0.75
  -6   3  -9   16.34    0.67
   6  -3   9   16.70    0.72
   6  -3   9   19.43    0.90
  -6   3  -9   17.51    0.74
   6  -3  10    1.32    0.17
  -6   3 -10    1.47    0.21
   6  -3  10    1.39    0.20
   6  -3  10    1.14    0.17
  -6   3 -10    1.38    0.18
  -6   2   4   29.30    1.02
   6  -2  -4   28.09    1.01
  -6   2   4   28.24    0.80
  -6   2   3   11.74    0.71
   6  -2  -3   11.27    0.57
  -6   2   3   11.47    0.62
  -6   2   3   11.30    0.60
  -6   2   2   40.31    1.42
   6  -2  -2   41.05    1.28
  -6   2   2   40.04    1.29
  -6   2   2   40.20    1.35
  -6   2   2   39.93    1.29
  -6   2   1    6.46    0.53
   6  -2  -1    7.29    0.65
   6  -2  -1    7.15    0.53
  -6   2   1    6.82    0.57
  -6   2   1    7.31    0.52
  -6   2   1    6.29    0.51
  -6   2   1    6.55    0.49
  -6   2   1    6.43    0.48
  -6   2   0   24.47    0.92
  -6   2   0   25.91    0.99
  -6   2   0   25.05    0.98
   6  -2   0   25.26    1.20
   6  -2   0   27.03    1.04
  -6   2   0   24.94    1.10
  -6   2   0   26.55    1.19
  -6   2   0   26.05    1.12
  -6   2   0   25.67    1.04
  -6   2  -1   41.40    1.11
  -6   2  -1   40.21    1.12
  -6   2  -1   43.15    1.28
   6  -2   1   42.10    1.54
   6  -2   1   42.48    1.30
  -6   2  -1   42.21    1.51
  -6   2  -1   42.21    1.53
  -6   2  -1   43.05    1.46
   6  -2   2  147.69    3.13
  -6   2  -2  148.49    2.74
   6  -2   2  148.10    2.79
  -6   2  -2  149.08    2.87
  -6   2  -2  148.74    3.21
  -6   2  -2  145.58    3.16
  -6   2  -2  145.77    3.04
   6  -2   3   65.26    1.86
  -6   2  -3   65.22    1.62
   6  -2   3   68.42    1.67
  -6   2  -3   73.24    1.93
  -6   2  -3   62.19    1.91
  -6   2  -3   68.32    1.95
  -6   2  -3   66.27    1.85
  -6   2  -3   68.30    1.87
   6  -2   3   66.85    1.46
   6  -2   4  115.10    2.57
  -6   2  -4  108.19    2.28
  -6   2  -4  114.03    2.14
   6  -2   4  116.33    2.35
  -6   2  -4  113.10    2.64
  -6   2  -4  110.48    2.64
  -6   2  -4  112.69    2.58
  -6   2  -4  115.94    2.60
   6  -2   4  108.28    2.27
   6  -2   5   47.52    1.54
   6  -2   5   49.80    1.60
   6  -2   5   48.90    1.33
  -6   2  -5   47.30    1.40
   6  -2   5   50.01    1.44
  -6   2  -5   47.90    1.37
  -6   2  -5   48.40    1.63
  -6   2  -5   47.76    1.55
  -6   2  -5   50.32    1.54
  -6   2  -5   47.25    1.58
   6  -2   5   46.29    1.47
   6  -2   6   16.25    0.87
   6  -2   6   15.92    0.87
  -6   2  -6   15.84    0.84
  -6   2  -6   15.08    0.91
  -6   2  -6   15.34    0.78
  -6   2  -6   17.05    0.82
  -6   2  -6   15.69    0.78
   6  -2   6   15.61    0.73
  -6   2  -6   16.76    0.92
   6  -2   6   17.61    0.92
   6  -2   7    4.16    0.44
   6  -2   7    3.21    0.39
  -6   2  -7    3.78    0.44
  -6   2  -7    3.57    0.44
  -6   2  -7    3.33    0.36
  -6   2  -7    3.49    0.32
  -6   2  -7    3.53    0.39
  -6   2  -7    2.92    0.30
   6  -2   7    3.92    0.39
  -6   2  -7    3.04    0.39
   6  -2   7    3.66    0.45
   6  -2   8   20.12    0.98
   6  -2   8   20.32    0.95
  -6   2  -8   20.62    1.02
  -6   2  -8   20.70    0.98
   6  -2   8   18.95    0.87
   6  -2   8   19.03    0.90
   6  -2   8   20.00    1.04
  -6   2  -8   18.78    0.89
   6  -2   9    0.95    0.24
   6  -2   9    0.77    0.20
   6  -2   9    1.23    0.22
  -6   2  -9    0.72    0.21
  -6   2  -9    0.82    0.18
   6  -2   9    0.51    0.15
   6  -2   9    0.63    0.18
   6  -2  10   42.86    1.03
  -6   2 -10   43.71    1.27
  -6   2 -10   41.16    1.20
   6  -2  10   41.72    1.12
   6  -2  10   42.32    1.27
   6  -2  10   46.02    1.27
  -6   1   5    8.25    0.47
   6  -1  -5    8.45    0.46
  -6   1   5    8.06    0.37
  -6   1   4   18.09    0.86
   6  -1  -4   20.54    0.82
  -6   1   4   20.67    0.83
  -6   1   4   19.53    0.61
  -6   1   3   20.56    1.00
  -6   1   3   20.94    0.82
  -6   1   3   21.59    0.98
  -6   1   3   20.96    0.78
   6  -1  -2    0.82    0.22
  -6   1   2    1.19    0.24
  -6   1   2    1.00    0.24
  -6   1   2    1.11    0.20
  -6   1   1   25.75    1.05
  -6   1   1   23.93    1.06
   6  -1  -1   25.88    1.14
  -6   1   1   25.31    0.98
  -6   1   1   27.47    1.01
  -6   1   1   28.66    1.00
  -6   1   0  140.17    2.79
  -6   1   0  131.14    2.69
   6  -1   0  141.83    3.17
   6  -1   0  145.60    2.98
  -6   1   0  141.36    2.88
  -6   1   0  133.76    3.06
  -6   1   0  139.85    2.96
  -6   1   0  140.45    2.68
  -6   1   0  137.92    2.46
  -6   1  -1  191.08    3.39
   6  -1   1  189.75    3.78
   6  -1   1  197.51    3.60
  -6   1  -1  194.99    3.67
  -6   1  -1  183.79    3.71
  -6   1  -1  191.05    3.59
   6  -1   2  185.90    3.67
  -6   1  -2  193.99    3.36
   6  -1   2  197.73    3.53
  -6   1  -2  195.69    3.34
  -6   1  -2  191.83    3.68
  -6   1  -2  191.72    3.54
   6  -1   3    1.71    0.20
   6  -1   3    1.96    0.31
   6  -1   3    1.14    0.22
  -6   1  -3    1.71    0.28
  -6   1  -3    1.70    0.29
  -6   1  -3    1.40    0.27
  -6   1  -3    1.46    0.23
  -6   1  -3    1.71    0.27
   6  -1   4    0.98    0.19
   6  -1   4    1.18    0.24
   6  -1   4    1.60    0.26
  -6   1  -4    1.37    0.20
  -6   1  -4    1.65    0.29
  -6   1  -4    1.15    0.25
  -6   1  -4    1.26    0.24
  -6   1  -4    1.38    0.23
  -6   1  -4    1.45    0.25
  -6   1  -4    0.98    0.22
   6  -1   5  118.58    2.65
   6  -1   5  118.10    2.53
  -6   1  -5  112.95    2.38
   6  -1   5  117.80    2.53
  -6   1  -5  114.53    2.66
  -6   1  -5  118.05    2.41
  -6   1  -5  115.71    2.55
  -6   1  -5  117.77    2.46
  -6   1  -5  118.94    2.57
   6  -1   5  115.84    2.46
   6  -1   6   83.26    2.17
   6  -1   6   81.93    2.03
  -6   1  -6   78.12    2.05
   6  -1   6   78.48    2.05
  -6   1  -6   80.48    2.18
  -6   1  -6   83.51    1.95
  -6   1  -6   78.76    1.81
  -6   1  -6   80.20    2.00
   6  -1   6   83.33    1.97
   6  -1   6   81.04    2.11
  -6   1  -6   83.33    2.10
   6  -1   7   36.19    1.39
   6  -1   7   36.59    1.28
  -6   1  -7   37.15    1.39
  -6   1  -7   35.44    1.15
  -6   1  -7   35.60    1.37
  -6   1  -7   37.97    1.08
   6  -1   7   37.89    1.34
   6  -1   7   36.94    1.43
  -6   1  -7   35.49    1.27
  -6   1  -8   50.72    1.38
   6  -1   8   52.82    1.74
   6  -1   8   54.14    1.57
   6  -1   8   58.44    1.35
  -6   1  -8   54.84    1.76
  -6   1  -8   54.10    1.66
   6  -1   8   50.99    1.65
   6  -1   8   56.83    1.82
  -6   1  -8   51.56    1.44
  -6   1  -9   43.50    1.25
   6  -1   9   45.50    1.54
   6  -1   9   44.68    1.30
  -6   1  -9   47.90    1.55
  -6   1  -9   50.12    1.40
   6  -1   9   43.66    1.44
   6  -1   9   45.35    1.53
   6  -1   9   47.52    1.57
  -6   1 -10  135.34    2.41
  -6   1 -10  147.95    2.82
   6  -1  10  141.49    2.71
   6  -1  10  154.89    2.80
   6  -1  10  142.84    2.90
  -6   1 -11   81.01    1.61
  -6   1 -11   78.23    1.67
   6  -1  11   76.65    1.52
   6  -1  11   78.36    1.74
  -6   0   5   81.75    1.79
   6   0  -5   81.93    1.70
  -6   0   5   81.70    1.70
  -6   0   4   68.88    1.85
   6   0  -4   73.90    1.88
  -6   0   4   70.52    1.86
  -6   0   3   18.30    0.95
   6   0  -3   19.72    1.01
  -6   0   3   17.48    0.94
  -6   0   2   11.98    0.76
   6   0  -2   11.44    0.79
  -6   0   2   12.17    0.79
  -6   0   2   10.91    0.72
  -6   0   2   11.71    0.57
  -6   0   2   11.57    0.74
  -6   0   1  227.80    4.10
   6   0  -1  230.77    4.37
  -6   0   1  230.95    3.77
  -6   0   1  224.29    4.26
  -6   0   1  232.37    3.68
  -6   0   0  214.69    3.77
   6   0   0  215.44    4.04
  -6   0   0  213.49    3.70
  -6   0   0  207.52    4.01
  -6   0   0  209.96    3.42
   6   0   1  144.04    3.09
  -6   0  -1  147.66    2.82
   6   0   1  148.63    3.04
  -6   0  -1  150.43    2.96
  -6   0  -1  144.11    3.06
  -6   0  -1  142.02    2.89
  -6   0  -2    3.20    0.33
   6   0   2    2.85    0.35
  -6   0  -2    2.54    0.28
  -6   0  -2    2.90    0.36
  -6   0  -2    2.97    0.36
  -6   0  -2    3.57    0.37
   6   0   3    4.71    0.45
   6   0   3    5.21    0.46
  -6   0  -3    4.87    0.40
  -6   0  -3    4.62    0.41
  -6   0  -3    4.45    0.44
  -6   0  -3    4.78    0.42
   6   0   3    4.44    0.31
  -6   0  -3    4.67    0.41
   6   0   4  129.47    2.74
  -6   0  -4  131.35    2.35
   6   0   4  126.62    2.67
  -6   0  -4  127.31    2.69
  -6   0  -4  130.73    2.51
  -6   0  -4  123.68    2.68
  -6   0  -4  129.38    2.57
   6   0   4  122.35    2.40
  -6   0  -4  133.13    2.59
   6   0   5  293.15    5.02
  -6   0  -5  300.96    4.78
   6   0   5  313.41    5.04
  -6   0  -5  305.34    5.12
  -6   0  -5  303.74    4.91
  -6   0  -5  309.60    4.83
  -6   0  -5  305.23    4.64
   6   0   5  313.16    4.76
   6   0   5  305.00    4.82
  -6   0  -5  307.36    4.86
   6   0   6  167.89    3.40
   6   0   6  166.64    3.05
  -6   0  -6  170.66    3.29
   6   0   6  166.47    3.34
  -6   0  -6  166.13    3.41
  -6   0  -6  170.80    3.06
  -6   0  -6  168.37    2.76
   6   0   6  163.62    3.19
   6   0   6  167.79    3.29
  -6   0  -6  167.17    3.15
  -6   0  -7   29.17    1.01
   6   0   7   30.33    1.29
   6   0   7   28.58    1.05
   6   0   7   31.05    1.09
  -6   0  -7   28.56    1.21
  -6   0  -7   31.76    0.95
   6   0   7   30.86    1.24
   6   0   7   31.06    1.27
   6   0   8    1.08    0.26
  -6   0  -8    0.93    0.20
   6   0   8    1.28    0.29
   6   0   8    1.33    0.23
   6   0   8    1.48    0.23
  -6   0  -8    1.41    0.30
  -6   0  -8    1.39    0.27
   6   0   8    1.78    0.32
  -6   0  -9  157.60    3.01
   6   0   9  162.83    3.43
  -6   0  -9  164.85    3.37
  -6   0  -9  160.50    3.00
   6   0   9  154.84    3.26
   6   0   9  169.01    3.37
   6   0   9  165.24    3.45
  -6   0 -10   26.90    0.93
  -6   0 -10   27.55    1.07
   6   0  10   26.02    1.05
   6   0  10   28.02    1.02
   6   0  10   27.19    1.14
  -6   0 -11   15.26    0.62
   6   0  11   13.64    0.61
   6   0  11   15.27    0.71
  -6  -1   5  165.18    2.94
   6   1  -5  171.12    2.97
  -6  -1   5  168.36    2.96
  -6  -1   4  121.32    2.63
   6   1  -4  121.76    2.72
  -6  -1   4  117.06    2.67
  -6  -1   3    1.13    0.25
   6   1  -3    1.04    0.26
  -6  -1   3    0.97    0.24
  -6  -1   3    0.84    0.24
  -6  -1   3    0.77    0.20
   6   1  -2   21.44    1.11
  -6  -1   2   20.63    1.00
  -6  -1   2   20.38    1.05
  -6  -1   2   20.31    1.01
  -6  -1   1  189.30    3.64
   6   1  -1  198.54    3.94
  -6  -1   1  195.01    3.25
  -6  -1   1  190.79    3.77
  -6  -1   0   53.71    1.57
   6   1   0   55.94    1.76
  -6  -1   0   54.10    1.48
  -6  -1   0   52.31    1.67
   6   1   1    2.00    0.31
   6   1   1    1.20    0.25
  -6  -1  -1    1.29    0.23
  -6  -1  -1    1.26    0.23
  -6  -1  -1    1.13    0.22
   6   1   2    6.41    0.52
  -6  -1  -2    6.86    0.48
   6   1   2    6.80    0.54
  -6  -1  -2    7.56    0.46
  -6  -1  -2    8.59    0.58
  -6  -1  -2    6.97    0.52
  -6  -1  -2    6.71    0.49
   6   1   3  107.74    2.39
   6   1   3  108.81    2.42
  -6  -1  -3  108.78    2.22
  -6  -1  -3  111.97    2.28
  -6  -1  -3  107.81    2.41
  -6  -1  -3  102.91    2.20
   6   1   3  106.80    1.95
  -6  -1  -3  106.18    2.20
   6   1   4  380.91    6.00
  -6  -1  -4  411.75    5.60
   6   1   4  383.46    6.02
  -6  -1  -4  395.13    6.01
  -6  -1  -4  397.48    5.79
  -6  -1  -4  371.42    5.94
  -6  -1  -4  388.99    5.58
   6   1   4  399.28    5.70
  -6  -1  -4  396.11    5.71
   6   1   5  156.09    3.14
   6   1   5  158.71    2.73
  -6  -1  -5  156.65    2.93
   6   1   5  159.35    3.17
  -6  -1  -5  156.32    3.18
  -6  -1  -5  157.56    3.02
  -6  -1  -5  164.76    2.71
  -6  -1  -5  161.61    2.98
   6   1   5  164.43    2.97
   6   1   5  152.76    2.93
  -6  -1  -5  151.17    2.74
   6   1   6    5.40    0.51
   6   1   6    6.75    0.43
  -6  -1  -6    6.21    0.52
   6   1   6    5.70    0.52
  -6  -1  -6    5.45    0.51
  -6  -1  -6    6.21    0.46
   6   1   6    5.81    0.49
   6   1   6    5.27    0.48
   6   1   7    0.95    0.24
  -6  -1  -7    1.27    0.23
   6   1   7    1.04    0.25
   6   1   7    1.12    0.22
  -6  -1  -7    1.13    0.27
  -6  -1  -7    1.36    0.28
  -6  -1  -7    1.11    0.18
   6   1   7    1.29    0.26
  -6  -1  -8   29.42    1.13
   6   1   8   28.73    1.28
   6   1   8   30.25    1.06
  -6  -1  -8   29.78    1.28
  -6  -1  -8   28.26    1.16
   6   1   8   29.22    1.25
   6   1   8   29.49    1.29
  -6  -1  -9   54.20    1.58
   6   1   9   55.59    1.35
   6   1   9   53.59    1.78
  -6  -1  -9   52.80    1.71
  -6  -1  -9   54.46    1.49
   6   1   9   52.69    1.72
   6   1   9   54.54    1.71
   6   1   9   54.04    1.78
  -6  -1 -10   27.96    1.01
  -6  -1 -10   28.59    1.10
   6   1  10   28.65    1.13
   6   1  10   29.79    1.04
   6   1  10   29.21    1.20
  -6  -1 -11    1.77    0.21
  -6  -1 -11    1.45    0.20
   6   1  11    1.79    0.24
   6   1  11    1.64    0.25
  -6  -2   5   33.07    1.04
   6   2  -5   34.78    1.11
  -6  -2   5   32.66    1.08
  -6  -2   4    1.14    0.25
   6   2  -4    1.05    0.18
   6   2  -4    1.19    0.26
  -6  -2   4    0.99    0.25
  -6  -2   4    0.78    0.16
   6   2  -3    2.51    0.29
   6   2  -3    1.92    0.35
  -6  -2   3    2.70    0.28
  -6  -2   3    3.04    0.41
  -6  -2   3    2.80    0.34
  -6  -2   3    2.18    0.36
   6   2  -2    7.96    0.52
   6   2  -2    7.54    0.67
  -6  -2   2    7.41    0.60
  -6  -2   2    8.09    0.65
  -6  -2   2    7.79    0.50
  -6  -2   2    7.47    0.61
  -6  -2   1   39.87    1.40
   6   2  -1   42.48    1.24
   6   2  -1   40.39    1.55
  -6  -2   1   42.95    1.25
  -6  -2   1   42.06    1.17
  -6  -2   1   40.78    1.47
  -6  -2   0  205.67    3.72
   6   2   0  204.67    3.78
   6   2   0  209.30    3.40
   6   2   0  208.95    4.01
  -6  -2   0  211.09    3.56
  -6  -2   0  205.59    3.90
  -6  -2  -1    2.67    0.32
   6   2   1    2.73    0.26
   6   2   1    2.87    0.38
  -6  -2  -1    2.58    0.32
  -6  -2  -1    2.39    0.34
   6   2   1    2.46    0.32
   6   2   2  195.02    3.57
   6   2   2  200.21    3.06
  -6  -2  -2  211.56    3.52
   6   2   2  200.39    3.75
  -6  -2  -2  207.52    3.34
  -6  -2  -2  199.68    3.65
   6   2   2  208.18    3.00
  -6  -2  -2  209.55    3.66
  -6  -2  -2  202.53    3.49
   6   2   3  149.84    2.90
   6   2   3  145.53    2.98
  -6  -2  -3  149.78    2.78
  -6  -2  -3  151.86    2.82
  -6  -2  -3  151.29    3.00
  -6  -2  -3  156.45    2.80
   6   2   3  151.35    2.57
  -6  -2  -3  145.87    2.65
   6   2   4  134.17    2.73
  -6  -2  -4  134.15    2.48
   6   2   4  134.71    2.81
  -6  -2  -4  137.52    2.78
  -6  -2  -4  140.06    2.83
  -6  -2  -4  138.87    2.63
   6   2   4  137.74    2.56
  -6  -2  -4  134.29    2.38
  -6  -2  -4  138.89    2.38
   6   2   5   38.49    1.31
  -6  -2  -5   38.78    1.24
   6   2   5   39.75    1.37
  -6  -2  -5   38.88    1.37
  -6  -2  -5   40.43    1.31
  -6  -2  -5   39.45    1.25
   6   2   5   38.54    1.24
   6   2   5   36.99    1.02
   6   2   6    4.94    0.48
   6   2   6    5.20    0.47
  -6  -2  -6    5.45    0.49
   6   2   6    4.69    0.48
  -6  -2  -6    4.66    0.48
  -6  -2  -6    5.64    0.44
   6   2   6    5.20    0.47
   6   2   6    5.23    0.47
   6   2   7   27.80    1.21
   6   2   7   27.29    1.09
  -6  -2  -7   28.57    1.22
  -6  -2  -7   27.38    1.17
  -6  -2  -7   30.21    0.91
   6   2   7   26.24    1.16
   6   2   7   25.64    1.13
   6   2   8  105.10    2.65
   6   2   8  110.13    2.38
  -6  -2  -8  107.20    2.65
  -6  -2  -8  110.45    2.50
   6   2   8  106.65    2.60
   6   2   8  104.67    2.63
  -6  -2  -9   25.66    1.09
   6   2   9   27.19    0.95
  -6  -2  -9   25.89    1.16
  -6  -2  -9   25.79    0.98
   6   2   9   26.13    1.16
   6   2   9   26.83    1.14
   6   2   9   25.93    1.20
   6   2  10   41.04    1.02
  -6  -2 -10   39.44    1.25
  -6  -2 -10   41.69    1.33
   6   2  10   37.84    1.30
   6   2  10   39.38    1.19
   6   2  10   39.96    1.41
  -6  -2 -11   36.47    1.00
  -6  -2 -11   37.60    1.02
   6   2  11   37.46    1.08
  -6  -3   5    2.98    0.29
   6   3  -5    2.39    0.22
   6   3  -5    2.08    0.26
  -6  -3   5    3.07    0.32
   6   3  -4    2.24    0.28
  -6  -3   4    2.79    0.28
   6   3  -4    2.96    0.38
  -6  -3   4    2.76    0.38
  -6  -3   4    3.12    0.31
   6   3  -3   23.59    0.98
   6   3  -3   24.00    1.16
  -6  -3   3   23.40    0.93
  -6  -3   3   23.15    1.00
  -6  -3   3   21.73    1.08
  -6  -3   3   22.41    1.06
  -6  -3   2   75.69    1.88
   6   3  -2   76.72    1.94
   6   3  -2   72.75    2.18
  -6  -3   2   77.13    2.09
  -6  -3   2   76.19    2.12
  -6  -3   2   72.89    2.02
  -6  -3   1  173.02    3.40
   6   3  -1  170.53    3.26
   6   3  -1  176.90    3.29
   6   3  -1  175.06    3.67
  -6  -3   1  178.29    3.25
  -6  -3   1  180.00    3.01
   6   3  -1  174.52    3.12
  -6  -3   1  179.37    3.56
  -6  -3   1  175.17    3.44
  -6  -3   0  189.35    3.48
   6   3   0  186.71    3.38
   6   3   0  197.71    3.41
   6   3   0  194.70    3.80
  -6  -3   0  184.50    3.31
   6   3   0  181.37    3.39
  -6  -3   0  189.48    3.67
  -6  -3  -1  126.00    2.52
   6   3   1  124.25    2.44
   6   3   1  124.58    2.77
  -6  -3  -1  125.59    2.14
  -6  -3  -1  125.35    2.58
   6   3   1  120.87    2.61
  -6  -3  -1  121.61    2.69
   6   3   1  119.20    2.46
   6   3   2   18.04    0.79
   6   3   2   17.46    0.73
  -6  -3  -2   18.37    0.80
   6   3   2   18.36    0.91
  -6  -3  -2   18.30    0.74
  -6  -3  -2   19.61    0.91
   6   3   2   18.88    0.90
   6   3   2   18.92    0.67
  -6  -3  -2   19.03    0.87
   6   3   3   12.94    0.66
   6   3   3   12.45    0.60
   6   3   3   12.39    0.72
  -6  -3  -3   12.13    0.63
  -6  -3  -3   12.63    0.67
  -6  -3  -3   13.29    0.76
   6   3   3   12.67    0.61
  -6  -3  -3   12.87    0.65
   6   3   4   11.29    0.63
   6   3   4   11.42    0.69
  -6  -3  -4   11.44    0.69
  -6  -3  -4   11.65    0.63
  -6  -3  -4   11.00    0.70
   6   3   4   11.93    0.64
  -6  -3  -4   11.64    0.52
   6   3   5  128.83    2.66
   6   3   5  130.90    2.77
   6   3   5  129.17    2.79
  -6  -3  -5  130.72    2.83
  -6  -3  -5  131.98    2.76
  -6  -3  -5  135.02    2.65
   6   3   5  132.57    2.70
   6   3   5  130.45    2.47
   6   3   6   24.38    1.06
   6   3   6   24.50    1.07
   6   3   6   25.79    1.12
  -6  -3  -6   24.48    1.11
  -6  -3  -6   27.82    1.02
   6   3   6   25.81    0.85
   6   3   6   24.48    1.08
   6   3   7   93.58    2.37
   6   3   7   93.86    2.31
  -6  -3  -7   94.25    2.42
  -6  -3  -7   93.03    2.36
  -6  -3  -7   97.52    1.90
   6   3   7   91.02    2.37
   6   3   7   94.12    2.35
   6   3   8   41.87    1.18
   6   3   8   41.31    1.40
   6   3   8   42.26    1.52
  -6  -3  -8   41.77    1.54
  -6  -3  -8   42.60    1.43
   6   3   8   41.22    1.51
   6   3   8   41.50    1.51
   6   3   9   42.31    1.20
   6   3   9   43.03    1.30
  -6  -3  -9   40.74    1.46
  -6  -3  -9   41.82    1.24
   6   3   9   40.95    1.44
   6   3   9   40.92    1.40
   6   3   9   40.21    1.47
   6   3  10   84.79    1.76
  -6  -3 -10   88.76    2.02
  -6  -3 -10   88.61    2.03
   6   3  10   87.47    2.02
  -6  -3 -11   30.99    0.89
  -6  -3 -11   31.79    0.87
  -6  -3 -11   31.46    1.02
   6   3  11   30.79    0.88
   6   3  11   30.53    0.68
  -6  -4   5   86.46    1.69
   6   4  -5   80.60    1.59
   6   4  -5   84.60    1.74
  -6  -4   5   86.99    1.78
   6   4  -4  126.73    2.51
   6   4  -4  128.51    2.65
  -6  -4   4  124.01    2.42
  -6  -4   4  129.43    2.74
  -6  -4   4  130.76    2.39
   6   4  -3   31.46    1.20
   6   4  -3   30.92    1.27
  -6  -4   3   32.00    1.20
  -6  -4   3   31.88    1.28
  -6  -4   2   44.94    1.46
   6   4  -2   46.00    1.52
   6   4  -2   44.17    1.59
   6   4  -2   44.64    1.29
  -6  -4   2   42.74    1.50
  -6  -4   2   43.15    1.51
  -6  -4   2   41.60    1.43
  -6  -4   1  112.46    2.50
   6   4  -1  110.79    2.22
   6   4  -1  111.59    2.59
   6   4  -1  120.56    2.79
  -6  -4   1  114.46    2.54
  -6  -4   1  117.88    2.26
   6   4  -1  112.50    2.48
  -6  -4   1  112.46    2.69
  -6  -4   1  115.07    2.56
  -6  -4   0   46.23    1.41
   6   4   0   46.73    1.26
   6   4   0   45.08    1.48
   6   4   0   45.79    1.56
  -6  -4   0   44.43    1.35
   6   4   0   45.52    1.50
  -6  -4   0   44.53    1.54
  -6  -4  -1   43.53    1.31
   6   4   1   42.67    1.17
   6   4   1   45.02    1.42
   6   4   1   45.44    1.50
  -6  -4  -1   43.55    1.13
  -6  -4  -1   43.01    1.40
   6   4   1   45.21    1.51
  -6  -4  -1   45.48    1.50
   6   4   2   14.63    0.64
  -6  -4  -2   16.67    0.75
   6   4   2   14.11    0.74
   6   4   2   14.46    0.67
   6   4   2   15.54    0.82
  -6  -4  -2   14.61    0.69
  -6  -4  -2   15.34    0.83
   6   4   2   14.98    0.84
  -6  -4  -2   15.18    0.79
   6   4   3    1.64    0.22
   6   4   3    1.47    0.24
   6   4   3    1.65    0.25
  -6  -4  -3    1.80    0.26
   6   4   3    1.86    0.29
  -6  -4  -3    1.56    0.25
   6   4   3    1.43    0.26
  -6  -4  -3    1.49    0.27
  -6  -4  -3    2.09    0.27
   6   4   3    1.64    0.27
   6   4   4  192.74    3.31
   6   4   4  200.98    3.61
   6   4   4  195.07    3.59
  -6  -4  -4  195.46    3.68
  -6  -4  -4  195.32    3.39
  -6  -4  -4  195.82    3.75
   6   4   4  194.43    3.51
  -6  -4  -4  203.89    3.09
   6   4   4  194.07    3.51
   6   4   5  289.50    4.65
   6   4   5  298.13    4.98
   6   4   5  296.26    4.89
  -6  -4  -5  298.61    4.98
  -6  -4  -5  306.69    4.73
   6   4   5  295.77    4.67
   6   4   5  292.20    4.92
   6   4   6  128.51    2.70
   6   4   6  129.31    2.90
  -6  -4  -6  128.57    2.94
   6   4   6  130.10    2.84
  -6  -4  -6  134.01    2.70
  -6  -4  -6  131.60    2.72
   6   4   6  130.90    2.54
   6   4   6  129.24    2.89
   6   4   7    2.77    0.38
   6   4   7    2.21    0.32
  -6  -4  -7    2.06    0.33
  -6  -4  -7    2.36    0.27
   6   4   7    2.64    0.38
   6   4   7    2.06    0.25
   6   4   7    2.29    0.27
   6   4   8   37.27    1.17
   6   4   8   37.36    1.37
  -6  -4  -8   38.71    1.45
  -6  -4  -8   39.14    1.34
   6   4   8   34.99    1.31
   6   4   8   36.41    1.39
   6   4   9   52.26    1.41
   6   4   9   55.44    1.55
  -6  -4  -9   56.46    1.68
  -6  -4  -9   51.91    1.38
   6   4   9   51.25    1.52
   6   4  10   51.49    1.21
  -6  -4 -10   52.68    1.42
  -6  -4 -10   51.53    1.40
   6   4  10   48.83    1.31
   6   4  10   50.72    1.26
  -6  -4 -11    8.54    0.42
   6   4  11   10.04    0.34
  -6  -5   5  124.65    2.00
   6   5  -5  121.55    2.05
  -6  -5   5  118.08    2.02
  -6  -5   5  120.67    2.03
   6   5  -4   55.61    1.48
   6   5  -4   55.95    1.42
  -6  -5   4   57.58    1.48
  -6  -5   4   58.69    1.38
   6   5  -3   27.78    1.12
   6   5  -3   25.28    1.03
   6   5  -3   27.72    0.89
  -6  -5   3   25.29    1.05
  -6  -5   3   24.88    1.03
  -6  -5   3   24.58    1.05
   6   5  -2    1.23    0.26
   6   5  -2    0.77    0.21
   6   5  -2    1.02    0.22
  -6  -5   2    1.01    0.22
  -6  -5   2    0.95    0.22
  -6  -5   2    1.06    0.25
  -6  -5   2    1.45    0.29
   6   5  -2    1.58    0.23
   6   5  -1   64.39    1.92
  -6  -5   1   61.65    1.82
   6   5  -1   61.68    1.82
  -6  -5   1   61.17    1.52
   6   5  -1   63.50    1.84
  -6  -5   1   60.69    1.89
  -6  -5   1   68.58    1.80
  -6  -5   1   67.70    1.74
  -6  -5   0  133.16    2.63
   6   5   0  132.63    2.96
   6   5   0  136.19    2.89
  -6  -5   0  128.55    2.69
   6   5   0  132.23    2.98
  -6  -5   0  130.65    2.61
  -6  -5  -1   23.09    0.91
   6   5   1   22.65    1.06
   6   5   1   23.07    1.01
  -6  -5  -1   23.08    0.83
  -6  -5  -1   24.65    1.06
   6   5   1   24.45    1.15
  -6  -5  -1   24.58    1.11
   6   5   1   24.15    1.06
  -6  -5  -2    2.34    0.28
   6   5   2    2.79    0.29
   6   5   2    2.46    0.35
   6   5   2    1.99    0.29
  -6  -5  -2    1.99    0.32
   6   5   2    2.14    0.34
  -6  -5  -2    3.12    0.37
   6   5   2    2.33    0.34
   6   5   3  130.42    2.63
   6   5   3  131.62    2.83
  -6  -5  -3  130.72    2.49
   6   5   3  131.87    2.68
  -6  -5  -3  128.39    2.90
   6   5   3  133.22    2.97
  -6  -5  -3  132.49    2.60
   6   5   3  136.04    2.88
   6   5   4  208.67    3.80
  -6  -5  -4  207.05    3.49
   6   5   4  207.09    3.65
  -6  -5  -4  204.08    3.96
   6   5   4  207.51    3.83
   6   5   5  234.84    4.30
  -6  -5  -5  234.15    4.36
   6   5   5  229.54    4.01
  -6  -5  -5  231.24    3.89
  -6  -5  -5  237.63    4.29
   6   5   5  230.08    4.11
   6   5   5  234.95    3.65
   6   5   6    3.79    0.47
  -6  -5  -6    3.43    0.44
  -6  -5  -6    3.59    0.39
  -6  -5  -6    3.07    0.35
   6   5   6    3.42    0.37
   6   5   6    3.06    0.31
   6   5   7   36.23    1.44
  -6  -5  -7   36.59    1.39
  -6  -5  -7   37.23    1.09
   6   5   7   36.38    1.18
  -6  -5  -7   35.18    1.24
   6   5   7   34.27    1.14
   6   5   8   19.75    1.00
  -6  -5  -8   19.64    0.99
  -6  -5  -8   19.62    0.91
  -6  -5  -8   18.33    0.88
   6   5   8   18.71    0.85
   6   5   8   19.14    0.84
   6   5   9   84.60    2.00
  -6  -5  -9   82.99    2.02
  -6  -5  -9   83.03    1.75
  -6  -5  -9   76.86    1.88
   6   5   9   79.06    1.74
   6   5   9   79.55    1.83
   6   5  10   15.59    0.60
  -6  -5 -10   16.33    0.70
  -6  -5 -10   16.05    0.67
   6   5  10   15.49    0.62
   6   6  -4    6.31    0.42
  -6  -6   4    5.85    0.42
  -6  -6   4    6.45    0.39
  -6  -6   4    5.97    0.33
   6   6  -3   10.40    0.66
   6   6  -3    9.09    0.50
   6   6  -3   10.11    0.56
  -6  -6   3    9.99    0.63
  -6  -6   3    9.49    0.59
   6   6  -2    5.52    0.53
   6   6  -2    4.88    0.42
   6   6  -2    6.75    0.54
  -6  -6   2    4.85    0.48
   6   6  -2    5.92    0.40
  -6  -6   2    5.18    0.50
  -6  -6   1  354.79    5.78
   6   6  -1  349.38    5.92
   6   6  -1  355.22    5.42
  -6  -6   1  343.13    5.15
   6   6  -1  340.34    5.78
  -6  -6   1  353.80    5.86
   6   6  -1  364.51    5.40
  -6  -6   1  342.85    5.19
  -6  -6   1  350.34    5.21
   6   6   0  181.37    3.75
   6   6   0  178.25    3.29
  -6  -6   0  178.21    3.39
  -6  -6   0  182.46    3.62
   6   6   0  179.92    3.75
  -6  -6   0  177.99    3.66
   6   6   0  181.38    3.44
  -6  -6   0  184.34    3.09
   6   6   1   15.25    0.90
   6   6   1   14.10    0.72
  -6  -6  -1   13.96    0.82
   6   6   1   13.85    0.90
  -6  -6  -1   15.15    0.88
   6   6   1   13.89    0.82
   6   6   2   19.48    0.75
   6   6   2   19.74    1.03
   6   6   2   18.15    0.80
  -6  -6  -2   15.62    0.92
   6   6   2   16.61    0.99
  -6  -6  -2   19.20    0.93
   6   6   2   19.53    1.00
   6   6   3   36.08    1.20
   6   6   3   33.31    1.35
   6   6   3   35.05    1.11
   6   6   3   33.59    1.39
   6   6   3   34.48    1.38
  -6  -6  -3   36.97    1.20
   6   6   4  119.62    2.36
  -6  -6  -4  121.26    2.88
   6   6   4  122.07    2.69
   6   6   4  117.09    2.76
   6   6   4  123.18    2.39
   6   6   5   12.26    0.80
  -6  -6  -5   10.90    0.75
   6   6   5   10.76    0.73
   6   6   6    0.76    0.18
   6   6   6    0.49    0.21
  -6  -6  -6    0.72    0.24
  -6  -6  -6    0.74    0.22
   6   6   6    1.06    0.24
   6   6   7    2.28    0.37
  -6  -6  -7    2.23    0.35
   6   6   7    2.20    0.30
  -6  -6  -7    2.14    0.26
   6   6   7    2.26    0.30
   6   6   8   60.36    1.81
   6   6   8   59.16    1.44
  -6  -6  -8   61.52    1.62
   6   6   8   57.08    1.56
   6   6   9   79.78    1.88
  -6  -6  -9   80.11    1.84
  -6  -6  -9   77.01    1.49
   6   6  10   69.54    1.35
  -6  -6 -10   66.49    1.43
   6   6  10   68.13    1.36
   6   7  -4   15.68    0.61
  -6  -7   4   16.53    0.65
   6   7  -3   22.08    0.89
  -6  -7   3   22.21    0.91
   6   7  -3   21.37    0.79
  -6  -7   3   21.94    0.84
   6   7  -2   79.25    2.07
   6   7  -2   76.96    1.95
  -6  -7   2   74.28    1.93
  -6  -7   2   73.45    1.97
  -6  -7   1  188.23    3.65
   6   7  -1  185.38    3.74
  -6  -7   1  176.43    3.06
   6   7  -1  188.13    3.72
   6   7  -1  190.22    3.20
  -6  -7   1  187.92    3.68
   6   7   0   57.39    1.89
  -6  -7   0   58.01    1.78
  -6  -7   0   53.31    1.56
   6   7   0   57.77    1.88
   6   7   0   56.33    1.62
  -6  -7   0   56.11    1.81
   6   7   1    2.96    0.34
   6   7   1    2.85    0.42
  -6  -7  -1    2.48    0.36
   6   7   1    2.58    0.41
   6   7   1    2.70    0.36
  -6  -7  -1    2.46    0.37
   6   7   2    9.55    0.56
   6   7   2    9.58    0.74
  -6  -7  -2    9.40    0.72
   6   7   2   10.18    0.77
   6   7   2    9.75    0.72
  -6  -7  -2   11.24    0.71
   6   7   3    4.77    0.42
  -6  -7  -3    4.57    0.52
   6   7   3    5.03    0.53
   6   7   3    4.67    0.52
  -6  -7  -3    5.45    0.45
   6   7   4   81.67    2.08
  -6  -7  -4   78.23    2.23
   6   7   4   73.96    2.19
   6   7   4   77.09    1.87
   6   7   5   51.41    1.70
  -6  -7  -5   52.18    1.71
   6   7   5   50.82    1.72
   6   7   5   51.09    1.48
   6   7   6   35.53    1.42
  -6  -7  -6   32.93    1.36
  -6  -7  -6   35.12    1.24
   6   7   6   34.07    1.33
   6   7   6   34.74    1.20
   6   7   7   85.51    2.28
  -6  -7  -7   86.01    2.14
   6   7   7   84.14    2.06
   6   7   7   81.82    1.96
   6   7   8   40.45    1.37
   6   7   8   38.72    1.10
  -6  -7  -8   41.03    1.18
   6   7   8   39.16    1.20
   6   7   9   44.67    1.24
  -6  -7  -9   43.92    1.15
   6   7   9   42.04    1.11
   6   8  -3   34.46    1.00
  -6  -8   3   36.95    1.06
   6   8  -3   35.90    0.93
  -6  -8   3   35.48    0.97
   6   8  -2    2.35    0.30
   6   8  -2    2.59    0.30
  -6  -8   2    3.14    0.34
  -6  -8   2    2.55    0.30
   6   8  -1   11.83    0.69
   6   8  -1   12.15    0.75
  -6  -8   1   10.70    0.48
   6   8  -1   12.26    0.53
   6   8  -1   11.67    0.72
  -6  -8   1   11.56    0.70
  -6  -8   1   10.77    0.68
  -6  -8   0   35.99    1.30
   6   8   0   35.92    1.25
   6   8   0   34.52    1.38
  -6  -8   0   34.67    1.14
   6   8   0   35.81    1.40
   6   8   0   36.96    1.18
   6   8   1   32.08    1.17
  -6  -8  -1   34.61    1.28
   6   8   1   31.86    1.36
  -6  -8  -1   33.01    1.25
   6   8   1   35.87    1.42
   6   8   1   33.67    1.25
  -6  -8  -1   34.19    1.29
   6   8   2    2.09    0.29
   6   8   2    2.07    0.35
  -6  -8  -2    1.87    0.33
  -6  -8  -2    1.97    0.30
   6   8   2    1.61    0.31
  -6  -8  -2    1.95    0.30
   6   8   3   57.21    1.44
   6   8   3   53.70    1.40
  -6  -8  -3   53.11    1.79
   6   8   3   57.31    1.86
   6   8   3   56.18    1.75
   6   8   4   49.05    1.48
  -6  -8  -4   51.74    1.71
   6   8   4   51.61    1.78
   6   8   5  170.40    3.35
  -6  -8  -5  167.17    3.35
   6   8   5  168.26    3.51
   6   8   5  164.66    3.13
   6   8   6   46.69    1.55
  -6  -8  -6   46.55    1.52
   6   8   6   46.37    1.54
  -6  -8  -6   46.75    1.36
   6   8   6   44.74    1.37
   6   8   7    1.30    0.22
   6   8   7    1.38    0.27
   6   8   7    1.56    0.25
  -6  -8  -7    1.61    0.25
   6   8   8    1.42    0.23
  -6  -8  -8    1.64    0.22
   6   8   8    1.34    0.18
   6   8   8    1.48    0.21
   6   9  -2    0.41    0.11
   6   9  -2    0.54    0.13
   6   9  -2    0.38    0.12
  -6  -9   2    0.42    0.11
  -6  -9   2    0.60    0.13
   6   9  -1   22.05    0.83
   6   9  -1   22.65    0.88
   6   9  -1   22.17    0.88
  -6  -9   1   23.40    0.85
  -6  -9   1   22.91    0.85
   6   9   0  169.03    3.03
   6   9   0  168.59    3.20
   6   9   0  170.41    2.74
  -6  -9   0  165.20    3.04
  -6  -9   0  164.79    2.98
   6   9   1   39.65    1.22
  -6  -9  -1   37.75    1.22
   6   9   1   38.98    1.22
   6   9   1   40.27    1.38
  -6  -9  -1   41.29    1.27
  -6  -9  -1   42.51    1.25
  -6  -9  -2    6.31    0.45
   6   9   2    5.76    0.43
  -6  -9  -2    5.25    0.48
   6   9   2    5.52    0.49
   6   9   2    5.96    0.50
  -6  -9  -2    5.40    0.42
  -6  -9  -3    4.32    0.34
   6   9   3    4.12    0.34
  -6  -9  -3    3.77    0.43
   6   9   3    4.44    0.46
   6   9   4   82.80    1.79
  -6  -9  -4   79.87    2.05
   6   9   4   82.91    2.20
   6   9   5   77.37    1.81
   6   9   5   72.44    1.98
  -6  -9  -5   74.66    1.82
   6   9   6    1.51    0.25
   6   9   6    1.66    0.27
  -6  -9  -6    1.86    0.26
  -6  -9  -6    1.20    0.19
   6   9   7   13.46    0.64
   6   9   7   13.19    0.60
   6  10   0   76.79    1.53
   6  10   0   80.00    1.64
   6  10   1    1.43    0.19
   6  10   1    1.59    0.18
  -6 -10  -1    1.69    0.21
   6  10   1    1.61    0.21
  -6 -10  -1    1.32    0.18
  -6 -10  -2    1.23    0.20
   6  10   2    1.28    0.20
   6  10   3    5.19    0.41
  -6 -10  -3    4.30    0.37
   6  10   4   62.12    1.58
  -6 -10  -4   57.20    1.44
   6  10   5   36.45    1.11
  -6 -10  -5   32.71    0.98
  -7   6  -2   36.24    1.05
   7  -6   3   30.33    0.88
   7  -6   3   30.07    0.86
  -7   6  -3   29.15    0.84
  -7   6  -3   29.06    0.95
  -7   6  -3   30.28    0.89
  -7   6  -3   31.64    1.00
   7  -6   4   59.58    1.38
   7  -6   4   58.19    1.26
  -7   6  -4   56.34    1.39
  -7   6  -4   57.04    1.44
  -7   6  -4   58.33    1.43
  -7   6  -4   60.07    1.44
   7  -6   5   43.03    1.13
  -7   6  -5   41.82    1.16
  -7   6  -5   43.44    1.19
  -7   6  -5   42.47    1.21
  -7   6  -5   44.84    1.16
  -7   6  -6   10.83    0.51
   7  -6   6   10.39    0.40
  -7   6  -6   10.93    0.56
  -7   6  -6   11.44    0.48
  -7   5   0    1.85    0.24
   7  -5   1   56.49    1.42
  -7   5  -1   55.10    1.40
  -7   5  -1   59.29    1.54
  -7   5  -1   52.19    1.10
   7  -5   2  128.51    2.55
  -7   5  -2  124.28    2.39
  -7   5  -2  122.58    2.56
  -7   5  -2  126.74    2.48
  -7   5  -2  130.41    2.65
   7  -5   3   93.64    2.16
  -7   5  -3   91.60    2.10
  -7   5  -3   95.37    2.24
  -7   5  -3   94.60    2.18
  -7   5  -3   94.86    2.23
   7  -5   4    8.75    0.59
   7  -5   4    9.02    0.53
  -7   5  -4    9.07    0.61
  -7   5  -4    8.77    0.61
  -7   5  -4    9.16    0.63
  -7   5  -4    9.38    0.63
   7  -5   5    4.53    0.42
   7  -5   5    4.10    0.34
  -7   5  -5    4.70    0.42
  -7   5  -5    4.38    0.43
  -7   5  -5    3.99    0.40
   7  -5   5    4.42    0.33
  -7   5  -5    4.16    0.44
   7  -5   6   45.05    1.33
   7  -5   6   43.62    1.04
  -7   5  -6   46.88    1.37
  -7   5  -6   44.07    1.33
  -7   5  -6   42.76    1.27
   7  -5   6   44.70    1.21
  -7   5  -6   44.22    1.44
   7  -5   7   58.99    1.47
  -7   5  -7   60.70    1.51
  -7   5  -7   57.77    1.42
   7  -5   7   63.67    1.48
  -7   5  -7   62.36    1.66
   7  -5   8   10.38    0.51
  -7   5  -8    9.94    0.55
   7  -4  -1    2.50    0.24
  -7   4   1    2.26    0.26
   7  -4   0   64.56    1.55
  -7   4   0   62.04    1.54
  -7   4   0   66.61    1.70
  -7   4   0   61.78    1.36
   7  -4   1  124.65    2.46
  -7   4  -1  117.82    2.35
  -7   4  -1  119.36    2.59
  -7   4  -1  127.17    2.67
  -7   4  -1  119.28    2.13
   7  -4   2   88.80    2.01
  -7   4  -2   84.24    2.08
  -7   4  -2   86.72    2.25
  -7   4  -2   87.67    2.19
  -7   4  -2   86.56    2.21
   7  -4   3   30.51    1.07
  -7   4  -3   28.95    1.22
  -7   4  -3   28.95    1.06
  -7   4  -3   28.55    1.24
  -7   4  -3   29.41    1.23
  -7   4  -3   28.96    1.20
   7  -4   4    5.88    0.45
   7  -4   4    5.89    0.54
   7  -4   4    5.56    0.45
  -7   4  -4    6.05    0.57
  -7   4  -4    5.80    0.51
  -7   4  -4    5.57    0.54
  -7   4  -4    6.67    0.59
   7  -4   5    3.14    0.32
   7  -4   5    2.87    0.31
  -7   4  -5    2.78    0.37
  -7   4  -5    2.76    0.37
  -7   4  -5    1.68    0.32
  -7   4  -5    2.76    0.40
   7  -4   5    3.06    0.32
   7  -4   6   73.65    1.67
   7  -4   6   73.09    1.96
   7  -4   6   73.35    1.57
  -7   4  -6   75.24    2.02
  -7   4  -6   73.68    1.98
  -7   4  -6   70.83    1.87
  -7   4  -6   77.76    2.17
   7  -4   6   74.68    1.85
   7  -4   7   61.07    1.33
   7  -4   7   61.69    1.66
  -7   4  -7   58.69    1.36
  -7   4  -7   59.57    1.69
  -7   4  -7   59.54    1.59
  -7   4  -7   55.04    1.46
   7  -4   7   63.98    1.67
  -7   4  -7   61.94    1.82
  -7   4  -7   62.72    1.80
   7  -4   8    8.12    0.51
  -7   4  -8    8.36    0.46
  -7   4  -8    8.04    0.51
  -7   4  -8    8.01    0.43
   7  -4   8    9.49    0.58
  -7   4  -8    9.06    0.59
   7  -4   9    5.57    0.39
  -7   4  -9    4.95    0.37
  -7   3   2   11.12    0.50
   7  -3  -2   12.00    0.59
  -7   3   2   12.53    0.55
  -7   3   1    3.79    0.31
   7  -3  -1    4.34    0.41
  -7   3   1    3.94    0.34
  -7   3   1    3.78    0.32
  -7   3   1    4.29    0.38
   7  -3   0   35.72    1.30
  -7   3   0   34.76    1.24
  -7   3   0   36.77    1.26
  -7   3   0   34.38    1.00
   7  -3   1  105.46    2.52
  -7   3  -1  100.84    2.51
  -7   3  -1  111.74    2.57
  -7   3  -1  104.04    2.49
  -7   3  -1  103.52    2.44
   7  -3   2   22.99    1.06
  -7   3  -2   22.12    1.12
  -7   3  -2   23.52    1.14
  -7   3  -2   23.63    1.12
  -7   3  -2   23.11    1.06
   7  -3   3    2.81    0.37
  -7   3  -3    2.40    0.32
  -7   3  -3    2.26    0.38
  -7   3  -3    2.62    0.40
  -7   3  -3    1.99    0.35
   7  -3   4   12.39    0.75
  -7   3  -4   13.12    0.81
  -7   3  -4   11.85    0.82
  -7   3  -4   12.57    0.82
   7  -3   4   12.04    0.60
  -7   3  -4   12.27    0.83
   7  -3   5   48.60    1.53
   7  -3   5   45.61    1.60
   7  -3   5   45.91    1.30
  -7   3  -5   47.13    1.66
  -7   3  -5   46.94    1.63
  -7   3  -5   47.66    1.62
  -7   3  -5   46.17    1.58
  -7   3  -5   47.86    1.70
   7  -3   5   47.03    1.40
   7  -3   6   86.41    2.09
   7  -3   6   81.11    2.16
  -7   3  -6   82.62    1.79
  -7   3  -6   84.13    2.22
  -7   3  -6   84.74    2.26
  -7   3  -6   81.54    2.08
  -7   3  -6   78.07    2.04
  -7   3  -6   82.48    2.33
   7  -3   6   82.37    2.08
  -7   3  -6   81.82    2.29
   7  -3   7  127.36    2.55
   7  -3   7  119.53    2.65
  -7   3  -7  120.72    2.41
  -7   3  -7  115.61    2.70
  -7   3  -7  122.27    2.60
  -7   3  -7  109.96    2.34
   7  -3   7  125.70    2.72
  -7   3  -7  121.35    2.83
  -7   3  -7  126.35    2.83
   7  -3   8   38.57    1.18
   7  -3   8   38.31    1.24
  -7   3  -8   37.51    1.17
  -7   3  -8   39.05    1.30
  -7   3  -8   35.28    1.07
   7  -3   8   41.14    1.37
  -7   3  -8   37.53    1.34
   7  -3   9   13.07    0.60
  -7   3  -9   13.46    0.62
  -7   3  -9   13.50    0.62
   7  -3   9   14.97    0.73
  -7   3  -9   13.06    0.66
   7  -3  10   51.32    1.21
  -7   2   3   21.27    0.74
   7  -2  -3   22.57    0.80
  -7   2   3   20.81    0.55
  -7   2   2    0.61    0.16
   7  -2  -2    0.78    0.20
  -7   2   2    0.87    0.16
  -7   2   2    0.92    0.17
  -7   2   2    0.69    0.15
  -7   2   1    6.02    0.46
   7  -2  -1    6.38    0.56
  -7   2   1    5.89    0.47
  -7   2   1    6.15    0.49
  -7   2   1    5.72    0.41
  -7   2   1    6.25    0.46
  -7   2   0   13.34    0.68
   7  -2   0   15.39    0.91
   7  -2   0   14.91    0.71
  -7   2   0   14.16    0.75
  -7   2   0   13.15    0.80
  -7   2   0   14.22    0.75
  -7   2   0   12.53    0.65
  -7   2  -1   58.62    1.55
   7  -2   1   60.11    1.92
   7  -2   1   61.51    1.60
  -7   2  -1   59.08    1.82
  -7   2  -1   58.87    1.88
  -7   2  -1   58.59    1.85
  -7   2  -1   57.46    1.67
  -7   2  -2   40.19    1.26
   7  -2   2   41.91    1.54
   7  -2   2   40.98    1.27
  -7   2  -2   37.99    1.15
  -7   2  -2   38.92    1.51
  -7   2  -2   40.00    1.53
  -7   2  -2   40.41    1.52
   7  -2   3   33.17    1.35
  -7   2  -3   36.20    1.18
   7  -2   3   36.04    1.17
  -7   2  -3   38.78    1.30
  -7   2  -3   34.79    1.44
  -7   2  -3   31.83    1.36
  -7   2  -3   34.23    1.40
   7  -2   4  128.40    2.89
  -7   2  -4  123.65    2.54
   7  -2   4  125.49    2.54
  -7   2  -4  131.68    2.87
  -7   2  -4  126.42    2.97
  -7   2  -4  120.60    2.85
   7  -2   4  126.23    2.42
  -7   2  -4  125.35    2.95
   7  -2   5  108.82    2.59
   7  -2   5  104.62    2.57
  -7   2  -5  102.61    2.29
   7  -2   5  112.02    2.34
  -7   2  -5  106.11    2.63
  -7   2  -5  104.18    2.58
  -7   2  -5  102.84    2.50
   7  -2   5  107.12    2.35
  -7   2  -5  103.97    2.66
   7  -2   6   54.29    1.72
   7  -2   6   56.75    1.75
  -7   2  -6   52.79    1.47
  -7   2  -6   55.19    1.60
  -7   2  -6   57.95    1.85
  -7   2  -6   56.89    1.70
  -7   2  -6   56.31    1.61
   7  -2   6   57.34    1.73
  -7   2  -6   56.16    1.84
  -7   2  -6   59.08    1.88
   7  -2   7   98.05    2.40
   7  -2   7   98.14    2.34
  -7   2  -7   97.19    2.22
  -7   2  -7   96.23    2.22
  -7   2  -7  103.24    2.32
  -7   2  -7  100.34    2.50
  -7   2  -7   98.62    2.11
  -7   2  -7   94.22    2.02
   7  -2   7   98.90    2.45
  -7   2  -7   99.08    2.50
  -7   2  -7   96.95    2.44
   7  -2   8   33.45    1.23
   7  -2   8   32.31    1.14
   7  -2   8   33.87    0.96
  -7   2  -8   33.43    1.19
  -7   2  -8   31.18    1.13
  -7   2  -8   35.41    1.32
  -7   2  -8   30.42    1.00
   7  -2   8   32.60    1.09
   7  -2   8   33.89    1.31
  -7   2  -8   30.72    1.21
   7  -2   9    7.28    0.51
   7  -2   9    6.68    0.45
  -7   2  -9    6.79    0.50
  -7   2  -9    6.84    0.47
  -7   2  -9    6.71    0.47
   7  -2   9    6.89    0.44
   7  -2   9    7.91    0.57
  -7   2  -9    6.92    0.48
  -7   2 -10    1.21    0.19
  -7   2 -10    0.78    0.14
   7  -2  10    0.73    0.17
  -7   1   3   12.63    0.64
   7  -1  -3   13.25    0.67
   7  -1  -3   13.18    0.55
  -7   1   3   12.76    0.60
  -7   1   2   59.00    1.65
   7  -1  -2   60.24    1.78
   7  -1  -2   62.63    1.61
  -7   1   2   58.05    1.50
  -7   1   2   60.30    1.67
  -7   1   2   61.67    1.37
  -7   1   1   20.56    0.94
   7  -1  -1   22.18    1.11
   7  -1  -1   21.83    0.98
  -7   1   1   20.68    0.97
  -7   1   1   21.00    0.83
  -7   1   1   20.63    0.91
  -7   1   0   13.81    0.76
  -7   1   0   13.65    0.73
   7  -1   0   14.02    0.80
  -7   1   0   13.66    0.74
  -7   1   0   13.70    0.70
   7  -1   0   13.02    0.88
  -7   1  -1  158.99    3.14
  -7   1  -1  156.89    2.90
   7  -1   1  158.73    3.52
   7  -1   1  165.70    3.29
  -7   1  -1  163.91    3.33
  -7   1  -1  158.97    3.41
  -7   1  -1  161.98    3.03
  -7   1  -2  130.88    2.73
   7  -1   2  137.40    3.10
   7  -1   2  133.91    2.87
  -7   1  -2  135.26    2.51
  -7   1  -2  136.69    3.03
   7  -1   3  231.15    4.35
  -7   1  -3  229.22    3.98
   7  -1   3  222.08    4.06
  -7   1  -3  238.35    4.05
  -7   1  -3  231.14    4.37
  -7   1  -3  225.86    4.31
  -7   1  -3  230.22    4.29
   7  -1   4   27.04    1.20
  -7   1  -4   25.64    1.04
   7  -1   4   25.74    1.09
  -7   1  -4   25.88    1.12
  -7   1  -4   25.24    1.18
  -7   1  -4   27.14    1.16
   7  -1   4   26.02    0.94
  -7   1  -4   26.39    1.17
   7  -1   5    0.65    0.18
   7  -1   5    0.63    0.20
  -7   1  -5    0.70    0.22
  -7   1  -5    0.80    0.24
  -7   1  -5    0.88    0.22
  -7   1  -5    1.20    0.24
  -7   1  -5    0.70    0.22
   7  -1   6   18.28    0.98
   7  -1   6   17.15    0.88
  -7   1  -6   16.24    0.79
   7  -1   6   17.41    0.91
  -7   1  -6   17.64    0.91
  -7   1  -6   18.05    0.99
  -7   1  -6   18.22    0.91
  -7   1  -6   17.60    0.81
   7  -1   6   17.97    0.92
  -7   1  -6   17.34    0.94
   7  -1   7   26.57    1.20
   7  -1   7   25.79    1.06
  -7   1  -7   26.31    1.08
  -7   1  -7   26.38    1.21
  -7   1  -7   27.84    1.17
  -7   1  -7   27.43    1.00
   7  -1   7   27.83    1.22
  -7   1  -7   27.31    1.17
   7  -1   8   48.26    1.61
   7  -1   8   47.75    1.40
   7  -1   8   50.38    1.34
  -7   1  -8   50.88    1.57
  -7   1  -8   49.11    1.60
  -7   1  -8   46.27    1.22
  -7   1  -8   49.03    1.58
   7  -1   8   48.78    1.65
  -7   1  -8   46.88    1.46
   7  -1   9    1.20    0.25
   7  -1   9    1.11    0.23
   7  -1   9    1.11    0.18
  -7   1  -9    1.03    0.23
  -7   1  -9    1.20    0.23
   7  -1   9    0.96    0.20
  -7   1  -9    0.88    0.22
   7  -1   9    0.90    0.21
  -7   1  -9    0.98    0.19
  -7   1 -10    5.21    0.40
  -7   1 -10    4.99    0.32
  -7   1 -10    5.36    0.43
   7  -1  10    4.33    0.35
   7  -1  10    5.26    0.42
  -7   0   4   39.71    1.08
   7   0  -4   39.65    1.03
  -7   0   4   39.26    0.98
  -7   0   3  113.28    2.39
   7   0  -3  114.27    2.42
   7   0  -3  119.10    2.36
  -7   0   3  110.51    1.98
  -7   0   3  115.33    2.41
  -7   0   2  130.46    2.77
   7   0  -2  128.87    2.89
   7   0  -2  135.10    2.85
  -7   0   2  130.96    2.86
  -7   0   2  126.59    2.72
  -7   0   1    9.84    0.66
   7   0  -1   10.50    0.76
   7   0  -1   10.25    0.74
  -7   0   1    9.66    0.70
  -7   0   1   10.99    0.53
  -7   0   1   10.40    0.69
  -7   0   0    8.16    0.61
   7   0   0    7.81    0.67
   7   0   0    8.63    0.69
  -7   0   0    7.99    0.56
  -7   0   0    8.34    0.67
  -7   0   0    9.10    0.52
  -7   0  -1   99.32    2.36
   7   0   1   96.88    2.57
   7   0   1   97.85    2.50
  -7   0  -1  102.49    2.41
  -7   0  -1   97.17    2.53
  -7   0  -1   99.79    2.07
   7   0   2  218.81    4.19
  -7   0  -2  208.42    3.81
   7   0   2  215.92    4.08
  -7   0  -2  210.85    3.47
  -7   0  -2  214.25    4.03
  -7   0  -2  218.96    4.11
  -7   0  -2  212.93    4.03
   7   0   3   11.37    0.78
  -7   0  -3   10.42    0.67
   7   0   3   11.04    0.74
  -7   0  -3   11.06    0.65
  -7   0  -3   11.23    0.76
  -7   0  -3   10.31    0.70
   7   0   4   35.39    1.39
  -7   0  -4   37.31    1.29
   7   0   4   37.17    1.37
  -7   0  -4   34.86    1.28
  -7   0  -4   35.78    1.38
  -7   0  -4   35.98    1.30
   7   0   4   34.37    1.10
  -7   0  -4   37.02    1.34
   7   0   5    8.28    0.66
  -7   0  -5    7.97    0.49
   7   0   5    8.19    0.64
  -7   0  -5    7.59    0.58
  -7   0  -5    8.15    0.64
  -7   0  -5    7.70    0.61
  -7   0  -5    7.43    0.54
   7   0   5    8.11    0.56
  -7   0  -5    7.87    0.60
   7   0   6   76.88    2.18
   7   0   6   73.42    1.86
  -7   0  -6   75.19    1.89
   7   0   6   75.23    2.10
  -7   0  -6   79.73    2.19
  -7   0  -6   76.70    2.07
  -7   0  -6   79.15    2.00
  -7   0  -6   75.62    1.73
   7   0   6   76.16    2.04
  -7   0  -6   74.90    2.00
   7   0   7  204.03    4.11
   7   0   7  212.93    3.67
  -7   0  -7  209.57    3.89
  -7   0  -7  215.93    4.13
  -7   0  -7  224.25    3.66
  -7   0  -7  213.55    4.09
   7   0   7  209.56    4.06
  -7   0  -7  207.71    3.82
   7   0   8   82.94    2.29
   7   0   8   87.26    1.99
  -7   0  -8   85.84    2.20
  -7   0  -8   86.88    2.24
  -7   0  -8   82.17    2.25
   7   0   8   85.65    2.23
   7   0   8   87.27    2.34
  -7   0  -8   81.13    1.85
   7   0   9    5.82    0.38
   7   0   9    5.81    0.53
  -7   0  -9    6.43    0.54
  -7   0  -9    5.55    0.47
  -7   0  -9    5.55    0.53
   7   0   9    5.83    0.51
   7   0   9    5.66    0.53
   7   0   9    5.12    0.50
  -7   0 -10   29.70    1.03
  -7   0 -10   26.59    0.83
  -7   0 -10   29.15    1.12
   7   0  10   27.95    1.01
   7   0  10   30.05    1.07
  -7   0 -11   77.24    1.55
  -7   0 -11   76.26    1.69
   7   0  11   81.17    1.49
  -7  -1   4  159.00    2.75
   7   1  -4  155.25    2.60
  -7  -1   4  153.64    2.77
  -7  -1   3  107.28    2.35
   7   1  -3  105.68    2.29
   7   1  -3  108.67    2.40
  -7  -1   3  105.15    2.41
  -7  -1   2    1.20    0.26
   7   1  -2    0.92    0.23
   7   1  -2    1.25    0.27
  -7  -1   2    1.13    0.25
  -7  -1   2    1.06    0.26
  -7  -1   2    0.97    0.22
   7   1  -1    0.47    0.18
   7   1  -1    0.65    0.23
  -7  -1   1    0.80    0.22
  -7  -1   1    1.12    0.27
  -7  -1   0    2.95    0.39
   7   1   0    2.69    0.39
   7   1   0    2.87    0.42
  -7  -1   0    2.99    0.34
  -7  -1   0    3.21    0.43
  -7  -1  -1   83.38    2.12
   7   1   1   77.71    2.20
   7   1   1   74.61    2.20
  -7  -1  -1   88.46    2.13
  -7  -1  -1   71.77    2.13
   7   1   2   87.41    2.32
  -7  -1  -2   88.16    2.19
   7   1   2   90.18    2.38
  -7  -1  -2   91.00    1.87
  -7  -1  -2   89.53    2.25
  -7  -1  -2   88.70    2.29
  -7  -1  -2   87.78    2.23
   7   1   3    1.65    0.30
   7   1   3    1.01    0.26
  -7  -1  -3    0.79    0.19
  -7  -1  -3    0.70    0.21
  -7  -1  -3    1.15    0.23
  -7  -1  -3    0.79    0.21
  -7  -1  -3    0.75    0.20
   7   1   3    0.84    0.16
   7   1   4   25.12    1.14
   7   1   4   24.99    1.14
  -7  -1  -4   25.10    1.06
  -7  -1  -4   26.96    1.09
  -7  -1  -4   25.01    1.12
   7   1   4   24.37    0.91
  -7  -1  -4   24.18    0.95
  -7  -1  -4   24.36    1.02
   7   1   5  101.94    2.53
  -7  -1  -5   99.22    2.06
   7   1   5   97.83    2.48
  -7  -1  -5   99.19    2.43
  -7  -1  -5   98.31    2.35
  -7  -1  -5  100.84    2.42
  -7  -1  -5   96.42    2.08
   7   1   5   98.39    2.23
  -7  -1  -5   98.01    2.24
   7   1   6  382.20    6.22
   7   1   6  383.08    5.50
  -7  -1  -6  377.07    5.79
   7   1   6  350.87    6.07
  -7  -1  -6  353.76    6.08
  -7  -1  -6  366.53    6.01
  -7  -1  -6  379.35    5.86
   7   1   6  377.48    5.96
  -7  -1  -6  381.18    5.72
   7   1   7  207.54    4.14
   7   1   7  219.09    3.98
  -7  -1  -7  208.11    3.92
   7   1   7  207.70    4.15
  -7  -1  -7  217.69    4.13
  -7  -1  -7  214.66    3.59
  -7  -1  -7  215.48    4.14
   7   1   7  207.98    4.06
   7   1   8   17.00    0.97
   7   1   8   18.04    0.86
  -7  -1  -8   16.75    0.92
  -7  -1  -8   16.82    0.93
  -7  -1  -8   16.86    0.98
   7   1   8   18.13    0.99
   7   1   8   16.67    0.95
  -7  -1  -9    1.20    0.20
   7   1   9    0.90    0.23
   7   1   9    1.08    0.19
  -7  -1  -9    1.06    0.25
   7   1   9    1.01    0.24
   7   1   9    0.92    0.24
   7   1   9    1.21    0.27
  -7  -1 -10   20.59    0.87
  -7  -1 -10   19.99    0.72
  -7  -1 -10   21.38    0.99
   7   1  10   19.91    0.88
   7   1  10   21.36    0.90
  -7  -1 -11   23.50    0.76
  -7  -1 -11   23.68    0.88
   7   1  11   21.49    0.76
   7   1  11   23.43    0.69
  -7  -2   4   61.06    1.45
   7   2  -4   62.13    1.47
  -7  -2   4   60.84    1.52
  -7  -2   3    8.10    0.57
   7   2  -3    8.24    0.52
   7   2  -3    8.06    0.60
  -7  -2   3    7.61    0.59
  -7  -2   3    7.35    0.47
   7   2  -2    0.85    0.21
   7   2  -2    0.81    0.23
  -7  -2   2    0.67    0.21
  -7  -2   2    1.33    0.28
  -7  -2   2    0.81    0.20
  -7  -2   1   13.50    0.83
  -7  -2   1   13.90    0.65
   7   2  -1   13.72    0.81
   7   2  -1   14.57    0.92
  -7  -2   1   15.21    0.88
  -7  -2   1   14.24    0.87
  -7  -2   0   67.75    1.96
   7   2   0   70.16    2.00
   7   2   0   70.50    2.15
  -7  -2   0   72.65    1.71
  -7  -2   0   69.29    1.74
  -7  -2   0   65.90    2.00
  -7  -2  -1  126.18    2.83
   7   2   1  133.60    2.92
   7   2   1  138.65    3.15
  -7  -2  -1  134.23    2.78
  -7  -2  -1  128.47    2.96
   7   2   2   91.72    2.34
  -7  -2  -2   97.96    2.33
   7   2   2   93.03    2.48
  -7  -2  -2  100.85    1.98
  -7  -2  -2   95.65    2.34
  -7  -2  -2   98.69    2.40
   7   2   3   76.83    2.07
  -7  -2  -3   78.32    2.02
   7   2   3   79.25    2.20
  -7  -2  -3   79.92    1.88
  -7  -2  -3   80.48    2.13
   7   2   3   77.81    1.69
  -7  -2  -3   79.24    1.99
  -7  -2  -3   77.64    1.95
   7   2   4  273.52    4.75
   7   2   4  273.41    4.86
  -7  -2  -4  274.62    4.63
  -7  -2  -4  280.96    4.63
  -7  -2  -4  270.57    4.76
   7   2   4  266.13    4.30
  -7  -2  -4  262.53    4.27
  -7  -2  -4  271.56    4.46
   7   2   5   46.56    1.58
  -7  -2  -5   46.29    1.32
   7   2   5   45.86    1.62
  -7  -2  -5   45.59    1.57
  -7  -2  -5   46.46    1.52
  -7  -2  -5   49.63    1.59
   7   2   5   46.46    1.44
   7   2   5   48.60    1.36
  -7  -2  -5   47.32    1.33
   7   2   6   31.78    1.32
   7   2   6   33.38    1.33
  -7  -2  -6   33.45    1.21
   7   2   6   33.24    1.37
  -7  -2  -6   36.52    1.41
  -7  -2  -6   33.40    1.23
  -7  -2  -6   34.53    1.33
   7   2   6   32.88    1.28
   7   2   7   22.18    1.11
   7   2   7   22.57    1.06
  -7  -2  -7   21.64    1.03
   7   2   7   21.26    1.11
  -7  -2  -7   22.64    1.10
  -7  -2  -7   21.17    0.85
  -7  -2  -7   21.18    1.08
   7   2   7   22.65    1.10
  -7  -2  -8    4.58    0.41
   7   2   8    5.11    0.53
   7   2   8    4.69    0.46
  -7  -2  -8    5.98    0.55
  -7  -2  -8    6.85    0.58
  -7  -2  -8    4.94    0.55
   7   2   8    5.59    0.56
  -7  -2  -9   25.10    0.94
   7   2   9   25.49    0.97
   7   2   9   25.73    1.15
  -7  -2  -9   27.34    1.13
  -7  -2  -9   27.74    1.06
   7   2   9   23.83    1.09
   7   2   9   25.59    1.14
  -7  -2 -10    6.73    0.42
  -7  -2 -10    6.06    0.47
  -7  -2 -10    6.59    0.39
  -7  -2 -10    6.14    0.54
   7   2  10    6.26    0.49
   7   2  10    7.46    0.52
  -7  -2 -11   42.89    1.07
  -7  -2 -11   41.10    1.22
   7   2  11   40.60    1.09
  -7  -3   4    7.56    0.45
   7   3  -4    7.35    0.45
   7   3  -3   22.33    0.76
   7   3  -3   23.89    1.03
  -7  -3   3   23.39    1.02
  -7  -3   3   23.93    0.87
   7   3  -2   53.57    1.47
   7   3  -2   57.06    1.37
   7   3  -2   53.41    1.77
  -7  -3   2   54.11    1.42
  -7  -3   2   55.03    1.63
  -7  -3   2   55.68    1.74
  -7  -3   2   55.30    1.70
  -7  -3   1   71.91    2.02
  -7  -3   1   71.60    1.79
   7   3  -1   68.17    1.81
   7   3  -1   77.85    1.74
   7   3  -1   71.67    2.14
  -7  -3   1   72.12    2.04
  -7  -3   1   70.22    2.03
  -7  -3   0   66.56    1.92
   7   3   0   64.44    1.79
   7   3   0   72.30    1.67
   7   3   0   68.20    2.10
  -7  -3   0   63.43    1.65
  -7  -3   0   68.59    2.02
  -7  -3  -1   76.59    2.04
   7   3   1   74.29    1.94
   7   3   1   80.13    1.76
  -7  -3  -1   77.86    1.97
  -7  -3  -1   74.89    2.11
   7   3   2   72.69    1.92
  -7  -3  -2   73.27    1.97
   7   3   2   78.60    1.68
   7   3   2   72.49    2.14
  -7  -3  -2   75.13    1.67
  -7  -3  -2   76.69    2.04
  -7  -3  -2   77.48    2.06
   7   3   3  123.94    2.67
  -7  -3  -3  128.47    2.74
   7   3   3  126.77    2.94
  -7  -3  -3  128.81    2.58
  -7  -3  -3  129.00    2.87
   7   3   3  124.19    2.42
  -7  -3  -3  132.76    2.71
   7   3   4    1.56    0.27
  -7  -3  -4    1.62    0.22
   7   3   4    1.72    0.32
  -7  -3  -4    1.44    0.26
  -7  -3  -4    1.55    0.29
  -7  -3  -4    1.86    0.30
  -7  -3  -4    2.59    0.29
   7   3   4    1.34    0.24
   7   3   5    1.73    0.30
   7   3   5    1.57    0.30
  -7  -3  -5    1.72    0.26
  -7  -3  -5    1.92    0.33
   7   3   5    1.34    0.28
  -7  -3  -5    1.87    0.31
  -7  -3  -5    1.80    0.31
   7   3   5    1.63    0.26
   7   3   5    1.75    0.29
   7   3   6   36.57    1.37
   7   3   6   37.31    1.44
  -7  -3  -6   39.44    1.36
   7   3   6   37.69    1.47
  -7  -3  -6   40.09    1.49
  -7  -3  -6   39.08    1.35
  -7  -3  -6   38.31    1.40
   7   3   6   39.12    1.19
   7   3   6   37.20    1.38
   7   3   7  125.82    2.86
   7   3   7  131.83    2.95
  -7  -3  -7  131.70    2.89
  -7  -3  -7  125.71    2.93
  -7  -3  -7  124.77    2.47
  -7  -3  -7  123.75    2.90
   7   3   7  122.57    2.91
   7   3   8  123.90    2.78
   7   3   8  121.80    2.82
  -7  -3  -8  125.31    2.83
  -7  -3  -8  126.10    2.80
  -7  -3  -8  122.49    2.94
   7   3   8  121.73    2.89
  -7  -3  -9   30.97    1.08
   7   3   9   32.04    1.14
  -7  -3  -9   29.61    1.19
  -7  -3  -9   29.99    1.08
  -7  -3  -9   29.63    1.29
   7   3   9   27.91    1.15
   7   3   9   31.70    1.24
  -7  -3 -10   22.93    0.83
   7   3  10   24.18    0.78
  -7  -3 -10   25.16    0.95
  -7  -3 -10   23.28    0.72
  -7  -3 -10   23.83    1.03
   7   3  10   23.23    0.91
  -7  -3 -11   29.28    0.94
  -7  -4   4   16.93    0.66
   7   4  -4   15.86    0.63
   7   4  -3   96.45    1.87
   7   4  -3   95.08    2.13
  -7  -4   3   89.61    1.84
  -7  -4   3   90.59    2.14
  -7  -4   3   90.83    1.93
   7   4  -3   95.20    1.70
   7   4  -2   97.13    2.09
   7   4  -2   95.43    2.35
  -7  -4   2   98.29    2.28
  -7  -4   2   94.37    2.30
  -7  -4   2   94.28    2.12
  -7  -4   2   90.68    2.22
  -7  -4   1    5.95    0.50
   7   4  -1    6.55    0.50
   7   4  -1    6.09    0.57
   7   4  -1    6.24    0.44
  -7  -4   1    6.16    0.56
  -7  -4   1    6.03    0.53
  -7  -4   1    6.92    0.56
  -7  -4   0   19.15    0.95
   7   4   0   18.40    0.78
   7   4   0   18.67    0.87
   7   4   0   19.69    1.05
  -7  -4   0   18.68    0.82
   7   4   0   19.69    0.91
  -7  -4   0   19.23    1.01
  -7  -4   0   19.45    0.94
  -7  -4  -1   12.17    0.73
   7   4   1   10.89    0.60
   7   4   1   12.15    0.69
   7   4   1   11.95    0.81
  -7  -4  -1   12.62    0.74
   7   4   1   11.21    0.73
  -7  -4  -1   11.78    0.78
   7   4   2  116.72    2.40
  -7  -4  -2  123.95    2.66
   7   4   2  121.83    2.52
   7   4   2  124.87    2.43
   7   4   2  119.51    2.85
  -7  -4  -2  120.45    2.33
  -7  -4  -2  125.03    2.79
  -7  -4  -2  127.79    2.79
   7   4   3    5.72    0.44
  -7  -4  -3    5.58    0.48
   7   4   3    5.82    0.46
   7   4   3    5.98    0.49
   7   4   3    7.14    0.60
  -7  -4  -3    6.37    0.50
  -7  -4  -3    5.53    0.54
  -7  -4  -3    6.35    0.51
   7   4   4    0.52    0.16
   7   4   4    0.59    0.20
   7   4   4    0.93    0.24
  -7  -4  -4    0.81    0.22
  -7  -4  -4    0.41    0.19
  -7  -4  -4    0.31    0.13
  -7  -4  -4    0.42    0.13
   7   4   4    0.62    0.19
   7   4   5   13.88    0.75
   7   4   5   14.62    0.87
   7   4   5   14.91    0.87
  -7  -4  -5   14.79    0.81
  -7  -4  -5   14.77    0.87
  -7  -4  -5   16.34    0.91
   7   4   5   15.14    0.84
   7   4   5   15.77    0.82
   7   4   6  141.15    2.92
   7   4   6  142.77    3.21
   7   4   6  139.85    3.12
  -7  -4  -6  142.21    3.19
  -7  -4  -6  152.84    3.10
  -7  -4  -6  147.92    3.03
   7   4   6  150.72    2.85
   7   4   6  137.50    3.10
   7   4   7  226.18    4.14
   7   4   7  236.23    4.46
  -7  -4  -7  239.52    4.35
  -7  -4  -7  236.32    4.43
  -7  -4  -7  242.91    3.93
  -7  -4  -7  243.59    4.36
   7   4   7  237.43    3.82
   7   4   7  229.30    4.43
   7   4   8  170.62    3.51
   7   4   8  171.65    3.32
  -7  -4  -8  177.04    3.52
  -7  -4  -8  174.67    3.44
  -7  -4  -8  180.01    3.55
   7   4   8  170.61    3.57
   7   4   9    5.59    0.47
  -7  -4  -9    5.81    0.51
  -7  -4  -9    6.08    0.46
  -7  -4  -9    6.34    0.55
   7   4   9    6.34    0.49
   7   4  10    8.23    0.45
  -7  -4 -10    8.24    0.48
  -7  -4 -10    8.63    0.52
  -7  -4 -10    8.07    0.37
  -7  -4 -10    8.48    0.55
   7   4  10    7.90    0.47
  -7  -5   4  116.77    1.89
  -7  -5   4  119.49    1.99
   7   5  -3   21.97    0.80
   7   5  -3   22.97    0.82
  -7  -5   3   22.06    0.81
  -7  -5   3   22.50    0.80
   7   5  -2   42.40    1.31
   7   5  -2   41.42    1.33
  -7  -5   2   44.79    1.40
  -7  -5   2   41.28    1.33
   7   5  -2   43.47    1.16
  -7  -5   2   41.23    1.32
  -7  -5   1    2.75    0.37
   7   5  -1    2.66    0.34
   7   5  -1    2.70    0.36
   7   5  -1    2.36    0.30
  -7  -5   1    2.79    0.37
  -7  -5   1    2.29    0.31
   7   5  -1    2.56    0.31
  -7  -5   1    2.21    0.30
   7   5   0    1.19    0.25
   7   5   0    1.45    0.28
   7   5   0    1.29    0.26
  -7  -5   0    1.10    0.21
  -7  -5   0    1.45    0.25
  -7  -5   0    1.28    0.24
  -7  -5   0    1.24    0.28
   7   5   0    1.33    0.26
  -7  -5   0    1.23    0.26
  -7  -5  -1  131.26    2.70
   7   5   1  129.57    2.82
   7   5   1  126.73    2.89
  -7  -5  -1  131.16    2.78
   7   5   1  128.61    2.95
  -7  -5  -1  128.43    2.92
  -7  -5  -1  131.46    2.59
   7   5   1  125.26    2.86
  -7  -5  -2   92.02    2.11
   7   5   2   91.37    1.88
   7   5   2   86.49    2.18
   7   5   2   86.42    2.25
  -7  -5  -2   84.73    1.91
  -7  -5  -2   86.88    2.28
   7   5   2   86.85    2.37
  -7  -5  -2   88.64    2.24
   7   5   2   91.93    2.38
  -7  -5  -3   25.05    1.00
   7   5   3   23.99    0.96
   7   5   3   22.96    1.03
   7   5   3   23.77    1.07
  -7  -5  -3   22.81    0.98
  -7  -5  -3   23.80    1.13
  -7  -5  -3   24.17    0.99
   7   5   3   21.72    1.09
   7   5   4   41.69    1.44
  -7  -5  -4   45.76    1.40
   7   5   4   42.28    1.46
  -7  -5  -4   42.77    1.49
  -7  -5  -4   44.36    1.60
   7   5   4   41.82    1.52
  -7  -5  -4   46.24    1.23
   7   5   5  115.58    2.75
  -7  -5  -5  120.87    2.54
   7   5   5  113.89    2.61
  -7  -5  -5  115.71    2.77
  -7  -5  -5  118.65    2.78
   7   5   5  111.69    2.64
   7   5   6  181.26    3.79
  -7  -5  -6  185.55    3.46
  -7  -5  -6  187.11    3.79
   7   5   6  183.03    3.56
  -7  -5  -6  191.95    3.62
   7   5   6  182.87    3.47
   7   5   7   62.75    1.96
  -7  -5  -7   63.87    1.93
  -7  -5  -7   64.75    1.78
  -7  -5  -7   64.35    1.62
   7   5   7   64.30    1.66
   7   5   8    6.33    0.57
  -7  -5  -8    6.38    0.56
  -7  -5  -8    7.21    0.57
  -7  -5  -8    6.25    0.51
   7   5   8    5.60    0.46
   7   5   9    0.66    0.19
  -7  -5  -9    0.26    0.14
  -7  -5  -9    0.31    0.12
   7   5   9    0.34    0.12
  -7  -5  -9    0.20    0.12
   7   5  10   13.13    0.55
  -7  -5 -10   13.45    0.57
  -7  -5 -10   12.88    0.59
   7   6  -3    4.85    0.34
  -7  -6   3    4.26    0.34
  -7  -6   3    4.01    0.31
  -7  -6   3    3.95    0.27
   7   6  -2    5.10    0.43
   7   6  -2    4.86    0.36
   7   6  -2    4.68    0.35
   7   6  -2    5.19    0.32
  -7  -6   2    5.62    0.46
  -7  -6   2    5.05    0.42
  -7  -6   1   39.70    1.38
   7   6  -1   41.00    1.38
   7   6  -1   39.03    1.21
   7   6  -1   39.63    1.29
   7   6  -1   38.57    1.17
  -7  -6   1   37.40    1.11
  -7  -6   1   37.63    1.12
   7   6   0   27.65    1.18
  -7  -6   0   26.89    1.17
   7   6   0   27.26    1.04
  -7  -6   0   28.21    1.00
   7   6   0   27.27    1.17
  -7  -6   0   29.83    1.23
   7   6   0   26.74    1.08
  -7  -6   0   27.63    0.97
  -7  -6  -1  249.09    4.01
   7   6   1  253.71    4.52
   7   6   1  242.38    4.17
  -7  -6  -1  245.11    4.29
   7   6   1  241.01    4.58
  -7  -6  -1  250.93    4.49
   7   6   1  242.31    4.40
  -7  -6  -2   49.32    1.37
   7   6   2   51.88    1.69
   7   6   2   47.86    1.47
  -7  -6  -2   49.07    1.38
  -7  -6  -2   48.71    1.64
   7   6   2   52.71    1.80
  -7  -6  -2   54.27    1.64
   7   6   2   48.99    1.69
  -7  -6  -3   39.49    1.20
   7   6   3   43.26    1.29
   7   6   3   38.89    1.29
  -7  -6  -3   41.03    1.37
  -7  -6  -3   41.42    1.54
   7   6   3   42.46    1.60
   7   6   3   40.50    1.56
  -7  -6  -3   41.10    1.30
   7   6   4   21.82    0.99
  -7  -6  -4   22.50    0.87
   7   6   4   20.20    0.89
  -7  -6  -4   19.70    1.00
  -7  -6  -4   21.50    1.10
   7   6   4   20.13    1.06
   7   6   5   43.32    1.53
  -7  -6  -5   41.97    1.25
  -7  -6  -5   42.32    1.55
   7   6   5   41.27    1.30
  -7  -6  -5   44.98    1.58
   7   6   5   40.72    1.51
   7   6   6   22.60    1.13
  -7  -6  -6   22.12    0.88
  -7  -6  -6   23.79    1.13
  -7  -6  -6   24.10    1.06
   7   6   6   23.70    1.07
   7   6   7    1.34    0.20
   7   6   7    0.79    0.23
  -7  -6  -7    1.00    0.25
  -7  -6  -7    1.00    0.20
  -7  -6  -7    1.17    0.21
   7   6   7    0.79    0.20
   7   6   8    3.20    0.40
  -7  -6  -8    3.42    0.39
  -7  -6  -8    3.51    0.38
   7   6   8    3.04    0.29
   7   6   8    3.46    0.29
   7   6   9   23.39    0.92
  -7  -6  -9   23.28    0.88
  -7  -6  -9   23.33    0.79
   7   6   9   22.34    0.65
  -7  -7   3    6.06    0.37
   7   7  -2    9.89    0.54
   7   7  -2    9.58    0.47
  -7  -7   2    9.66    0.56
  -7  -7   2    9.69    0.53
   7   7  -1   72.42    1.86
   7   7  -1   75.35    1.83
   7   7  -1   71.90    1.55
  -7  -7   1   73.99    1.86
  -7  -7   1   72.95    1.89
  -7  -7   0  164.28    3.26
   7   7   0  160.97    2.85
   7   7   0  167.82    3.31
  -7  -7   0  156.44    2.81
   7   7   0  157.97    3.25
   7   7   0  162.33    3.02
  -7  -7   0  164.06    3.26
   7   7   1   24.29    1.12
  -7  -7  -1   24.52    1.11
  -7  -7  -1   22.61    0.98
   7   7   1   25.52    1.17
   7   7   1   24.56    1.07
  -7  -7  -1   23.89    1.07
   7   7   2   23.62    1.12
  -7  -7  -2   22.44    0.88
  -7  -7  -2   23.25    1.09
   7   7   2   24.34    1.18
   7   7   2   23.57    1.12
  -7  -7  -2   23.43    1.01
   7   7   3    2.45    0.28
  -7  -7  -3    2.32    0.37
  -7  -7  -3    1.90    0.29
   7   7   3    1.84    0.33
  -7  -7  -3    2.34    0.29
   7   7   3    1.96    0.35
   7   7   4    6.38    0.50
  -7  -7  -4    6.43    0.56
  -7  -7  -4    6.63    0.60
   7   7   4    6.93    0.63
   7   7   5   11.06    0.72
  -7  -7  -5   10.10    0.72
  -7  -7  -5   10.90    0.74
   7   7   5   11.79    0.79
   7   7   6   18.70    0.97
  -7  -7  -6   18.13    0.95
  -7  -7  -6   19.06    0.90
   7   7   6   18.17    0.94
   7   7   6   17.96    0.72
   7   7   7   53.51    1.68
  -7  -7  -7   53.50    1.59
   7   7   7   51.69    1.50
  -7  -7  -7   55.71    1.32
   7   7   7   49.71    1.26
   7   7   8   62.83    1.70
  -7  -7  -8   62.79    1.59
   7   7   8   61.36    1.38
  -7  -7  -8   63.69    1.54
   7   7   8   58.53    1.31
   7   7   9   22.24    0.80
  -7  -7  -9   21.11    0.73
   7   8  -2   32.39    0.90
  -7  -8   2   34.00    0.97
  -7  -8   2   32.60    0.89
   7   8  -1   25.62    0.79
   7   8  -1   27.31    0.96
   7   8  -1   26.10    0.91
  -7  -8   1   27.06    0.97
  -7  -8   1   25.89    0.90
   7   8   0    5.65    0.38
   7   8   0    5.81    0.48
  -7  -8   0    4.61    0.33
   7   8   0    5.40    0.47
   7   8   0    6.03    0.40
  -7  -8   0    5.74    0.45
  -7  -8   0    5.44    0.46
  -7  -8  -1    5.53    0.48
   7   8   1    5.30    0.49
  -7  -8  -1    4.48    0.39
   7   8   1    5.72    0.51
   7   8   1    4.54    0.42
  -7  -8  -1    5.59    0.46
  -7  -8  -2   13.60    0.77
  -7  -8  -2   12.85    0.61
  -7  -8  -2   12.78    0.75
   7   8   2   13.56    0.81
   7   8   2   13.45    0.78
  -7  -8  -2   13.15    0.68
  -7  -8  -3    6.73    0.50
  -7  -8  -3    6.12    0.54
   7   8   3    6.75    0.58
   7   8   4   41.45    1.20
  -7  -8  -4   38.18    1.33
  -7  -8  -4   40.88    1.43
   7   8   4   42.68    1.53
   7   8   5   27.27    1.04
  -7  -8  -5   26.81    1.10
  -7  -8  -5   26.39    1.09
   7   8   5   27.41    1.18
   7   8   6   68.44    1.82
  -7  -8  -6   69.54    1.83
   7   8   6   69.05    1.86
  -7  -8  -6   71.68    1.71
   7   8   7  123.33    2.52
  -7  -8  -7  117.47    2.36
   7   8   7  118.92    2.38
   7   8   8   18.57    0.75
  -7  -8  -8   17.35    0.67
  -7  -9   1    2.85    0.24
   7   9   0    1.34    0.20
  -7  -9   0    1.07    0.18
  -7  -9   0    1.20    0.18
   7   9   0    1.10    0.13
  -7  -9  -1   88.66    1.77
   7   9   1   90.35    1.82
   7   9   1   95.43    2.03
  -7  -9  -1   89.68    1.83
  -7  -9  -1   92.99    1.93
  -7  -9  -2  107.36    1.84
  -7  -9  -2  106.65    1.87
   7   9   2  106.21    1.94
  -7  -9  -2  104.52    1.53
  -7  -9  -3   23.72    0.85
  -7  -9  -3   22.71    0.82
  -7  -9  -3   23.34    0.95
   7   9   3   23.82    0.99
  -7  -9  -4   22.14    0.74
  -7  -9  -4   21.69    0.85
  -7  -9  -4   21.82    0.90
   7   9   4   21.53    0.96
   7   9   5   35.78    0.99
  -7  -9  -5   33.53    1.09
   7   9   5   36.83    1.25
  -7  -9  -5   36.43    1.11
   7   9   6   59.02    1.39
  -7  -9  -6   57.20    1.41
   7   9   6   59.81    1.52
   7  10   2   40.79    0.97
  -7 -10  -3    0.50    0.13
   7  10   3    0.56    0.14
   7  10   4    5.52    0.38
  -8   5  -3   82.78    1.72
   8  -5   4  158.57    2.67
  -8   5  -4  156.38    2.71
  -8   5  -4  161.19    2.77
  -8   5  -4  166.65    2.80
   8  -5   5   46.83    1.16
  -8   5  -5   44.88    1.16
  -8   5  -5   44.89    1.15
  -8   5  -5   48.42    1.27
  -8   5  -5   48.79    1.23
  -8   4  -1    6.78    0.38
  -8   4  -1    7.19    0.43
   8  -4   2   72.53    1.43
   8  -4   2   75.55    1.72
  -8   4  -2   71.09    1.45
  -8   4  -2   73.84    1.70
  -8   4  -2   75.48    1.72
   8  -4   3  131.05    2.09
   8  -4   3  132.57    2.46
  -8   4  -3  128.21    2.33
  -8   4  -3  130.07    2.47
  -8   4  -3  135.57    2.52
  -8   4  -3  137.03    2.50
   8  -4   4   80.88    1.61
   8  -4   4   81.35    1.92
  -8   4  -4   82.68    1.93
  -8   4  -4   81.07    1.94
  -8   4  -4   83.09    2.03
  -8   4  -4   81.78    1.96
   8  -4   5    4.63    0.31
   8  -4   5    5.36    0.43
  -8   4  -5    5.23    0.40
  -8   4  -5    5.00    0.43
  -8   4  -5    5.08    0.42
  -8   4  -5    5.21    0.47
   8  -4   6    0.50    0.12
   8  -4   6    0.60    0.16
  -8   4  -6    0.63    0.16
  -8   4  -6    0.47    0.14
  -8   4  -6    0.65    0.17
  -8   4  -6    0.79    0.20
   8  -4   7   31.58    0.96
  -8   4  -7   32.42    1.00
  -8   4  -7   28.40    0.91
   8  -4   7   30.60    0.89
  -8   4  -7   31.62    1.09
   8  -4   8   52.10    1.18
  -8   4  -8   50.76    1.28
   8  -3   0   16.36    0.67
  -8   3   0   16.22    0.62
  -8   3   0   16.49    0.64
   8  -3   1   15.16    0.70
  -8   3  -1   15.10    0.71
  -8   3  -1   16.45    0.71
   8  -3   2    7.49    0.53
  -8   3  -2    8.03    0.52
  -8   3  -2    7.78    0.57
  -8   3  -2    8.38    0.55
   8  -3   3   63.21    1.69
  -8   3  -3   67.08    1.81
  -8   3  -3   65.55    1.85
  -8   3  -3   61.76    1.81
  -8   3  -3   65.39    1.87
  -8   3  -3   65.96    1.77
   8  -3   4    2.48    0.34
   8  -3   4    1.84    0.27
  -8   3  -4    2.51    0.35
  -8   3  -4    2.41    0.29
  -8   3  -4    2.19    0.34
  -8   3  -4    2.47    0.34
  -8   3  -4    1.92    0.33
   8  -3   5    0.68    0.17
   8  -3   5    1.16    0.25
  -8   3  -5    0.97    0.22
  -8   3  -5    0.81    0.22
  -8   3  -5    0.83    0.21
  -8   3  -5    1.17    0.25
  -8   3  -5    0.90    0.25
   8  -3   5    0.79    0.15
   8  -3   6   42.33    1.25
   8  -3   6   41.16    1.33
  -8   3  -6   40.03    1.35
  -8   3  -6   39.85    1.34
  -8   3  -6   38.79    1.24
   8  -3   6   40.42    1.17
  -8   3  -6   42.18    1.48
   8  -3   7   94.90    1.94
   8  -3   7   93.35    2.02
  -8   3  -7   95.00    2.14
  -8   3  -7   89.42    1.99
   8  -3   7   95.81    2.02
  -8   3  -7   92.30    2.22
   8  -3   8   60.14    1.30
   8  -3   8   60.85    1.40
  -8   3  -8   62.13    1.51
   8  -3   8   61.29    1.51
  -8   3  -8   60.78    1.57
   8  -3   9   32.38    0.95
  -8   3  -9   29.35    0.85
   8  -2  -1    0.91    0.18
  -8   2   1    0.73    0.13
  -8   2   1    1.18    0.17
  -8   2   1    0.81    0.12
   8  -2   0    5.25    0.45
  -8   2   0    5.51    0.42
  -8   2   0    5.71    0.43
  -8   2   0    5.63    0.39
   8  -2   1    4.58    0.45
  -8   2  -1    4.79    0.45
  -8   2  -1    4.70    0.41
  -8   2  -1    4.56    0.39
  -8   2  -1    4.92    0.35
  -8   2  -2   12.52    0.61
   8  -2   2   13.10    0.80
  -8   2  -2   12.85    0.77
  -8   2  -2   13.05    0.80
  -8   2  -2   13.43    0.72
  -8   2  -3   55.30    1.45
   8  -2   3   53.83    1.72
   8  -2   3   58.77    1.42
  -8   2  -3   55.39    1.78
  -8   2  -3   56.87    1.79
  -8   2  -3   56.48    1.81
  -8   2  -4   55.10    1.47
   8  -2   4   53.06    1.70
   8  -2   4   58.29    1.45
  -8   2  -4   56.91    1.58
  -8   2  -4   55.03    1.78
  -8   2  -4   54.86    1.74
  -8   2  -4   56.39    1.83
   8  -2   5   86.00    2.21
   8  -2   5   83.64    2.17
  -8   2  -5   83.38    1.94
   8  -2   5   90.56    1.92
  -8   2  -5   88.21    2.18
  -8   2  -5   88.60    2.30
  -8   2  -5   83.42    2.15
   8  -2   5   88.62    1.86
  -8   2  -5   88.23    2.38
   8  -2   6   45.34    1.49
   8  -2   6   39.71    1.35
  -8   2  -6   37.99    1.21
  -8   2  -6   41.73    1.46
  -8   2  -6   40.00    1.42
  -8   2  -6   43.04    1.43
  -8   2  -6   40.11    1.30
   8  -2   6   44.94    1.35
  -8   2  -6   42.65    1.55
   8  -2   7   62.75    1.70
   8  -2   7   57.71    1.57
  -8   2  -7   55.80    1.47
  -8   2  -7   59.21    1.62
  -8   2  -7   58.90    1.72
  -8   2  -7   60.07    1.53
  -8   2  -7   53.91    1.35
   8  -2   7   63.67    1.69
  -8   2  -7   59.10    1.77
   8  -2   8    9.31    0.57
   8  -2   8    9.45    0.53
   8  -2   8    9.95    0.48
  -8   2  -8    9.03    0.51
  -8   2  -8    9.88    0.47
  -8   2  -8    9.72    0.62
  -8   2  -8    8.01    0.46
   8  -2   8    9.74    0.46
   8  -2   8   11.03    0.65
  -8   2  -8   10.80    0.64
   8  -2   9   19.25    0.73
  -8   2  -9   17.51    0.60
  -8   2  -9   19.15    0.75
   8  -2   9   20.72    0.83
  -8   2  -9   16.99    0.66
  -8   1   2    6.75    0.37
   8  -1  -2    6.95    0.42
  -8   1   2    7.32    0.39
  -8   1   1   12.10    0.57
   8  -1  -1   11.50    0.65
   8  -1  -1   11.44    0.52
  -8   1   1   11.07    0.56
  -8   1   1   12.35    0.65
  -8   1   1   12.62    0.45
  -8   1   0   25.93    0.89
   8  -1   0   26.84    1.13
   8  -1   0   26.94    0.98
  -8   1   0   26.79    1.06
  -8   1   0   25.80    0.84
  -8   1   0   27.52    0.87
  -8   1   0   26.21    0.95
  -8   1  -1   26.89    1.03
   8  -1   1   29.83    1.27
   8  -1   1   27.29    1.05
  -8   1  -1   25.53    1.02
  -8   1  -1   28.09    1.19
  -8   1  -1   28.67    0.98
  -8   1  -2   81.60    2.00
   8  -1   2   79.29    2.24
   8  -1   2   81.81    2.03
  -8   1  -2   80.35    2.14
  -8   1  -2   81.68    2.24
  -8   1  -2   81.42    1.92
  -8   1  -3   64.06    1.75
   8  -1   3   63.40    1.96
   8  -1   3   64.03    1.76
  -8   1  -3   60.74    1.52
  -8   1  -3   60.07    1.89
  -8   1  -3   62.10    1.92
  -8   1  -3   61.37    1.93
   8  -1   4  147.28    3.25
  -8   1  -4  147.88    2.97
   8  -1   4  146.30    2.98
  -8   1  -4  149.13    2.95
  -8   1  -4  143.66    3.23
  -8   1  -4  148.16    3.17
  -8   1  -4  151.15    3.30
   8  -1   5   29.89    1.28
   8  -1   5   29.13    1.18
  -8   1  -5   29.40    1.15
   8  -1   5   31.08    1.18
  -8   1  -5   31.14    1.23
  -8   1  -5   28.76    1.25
  -8   1  -5   28.76    1.17
   8  -1   5   29.03    1.02
  -8   1  -5   29.71    1.29
   8  -1   6    1.40    0.29
   8  -1   6    1.24    0.24
   8  -1   6    1.16    0.25
  -8   1  -6    0.64    0.21
  -8   1  -6    0.87    0.23
  -8   1  -6    1.25    0.23
  -8   1  -6    1.25    0.25
   8  -1   6    0.93    0.22
   8  -1   7    3.87    0.44
   8  -1   7    4.27    0.40
  -8   1  -7    3.55    0.41
  -8   1  -7    3.51    0.31
  -8   1  -7    3.55    0.38
  -8   1  -7    3.52    0.42
  -8   1  -7    3.30    0.35
   8  -1   7    3.91    0.43
  -8   1  -7    4.43    0.46
   8  -1   8   47.98    1.51
   8  -1   8   47.06    1.26
   8  -1   8   49.36    1.32
  -8   1  -8   49.00    1.30
  -8   1  -8   46.02    1.45
  -8   1  -8   50.11    1.54
  -8   1  -8   45.36    1.20
   8  -1   8   50.91    1.56
  -8   1  -8   46.06    1.39
   8  -1   9   29.13    1.04
  -8   1  -9   27.22    0.90
  -8   1  -9   26.17    0.98
  -8   1  -9   29.16    1.00
   8  -1   9   25.91    0.90
   8  -1   9   31.13    1.12
  -8   1 -10   50.89    1.24
   8  -1  10   58.08    1.39
  -8   0   2  107.20    2.07
   8   0  -2  110.95    2.13
   8   0  -2  111.34    2.03
  -8   0   2  103.29    1.85
  -8   0   2  108.60    2.17
  -8   0   1  116.31    2.34
   8   0  -1  117.23    2.51
   8   0  -1  115.55    2.41
  -8   0   1  115.62    2.36
  -8   0   1  120.08    2.56
  -8   0   1  115.85    2.38
  -8   0   0   43.89    1.31
   8   0   0   41.90    1.50
   8   0   0   44.22    1.46
  -8   0   0   43.80    1.20
  -8   0   0   44.44    1.41
  -8   0  -1   11.15    0.70
  -8   0  -1   10.95    0.60
   8   0   1   11.70    0.80
   8   0   1   12.26    0.78
  -8   0  -1   12.84    0.72
  -8   0  -1   11.00    0.55
  -8   0  -2   25.71    1.11
   8   0   2   26.68    1.24
   8   0   2   26.49    1.18
  -8   0  -2   26.82    1.16
  -8   0  -2   27.08    0.95
   8   0   3  169.73    3.63
  -8   0  -3  173.35    3.42
   8   0   3  172.64    3.53
  -8   0  -3  171.05    3.03
  -8   0  -3  172.91    3.58
  -8   0  -3  173.50    3.57
  -8   0  -3  173.85    3.62
   8   0   4   41.55    1.58
  -8   0  -4   43.08    1.48
   8   0   4   42.11    1.52
  -8   0  -4   43.50    1.40
  -8   0  -4   45.54    1.62
  -8   0  -4   43.58    1.51
   8   0   4   45.35    1.19
  -8   0  -4   42.87    1.55
   8   0   5    1.09    0.26
   8   0   5    0.56    0.19
  -8   0  -5    1.46    0.28
  -8   0  -5    0.59    0.22
  -8   0  -5    0.67    0.19
  -8   0  -5    1.25    0.26
  -8   0  -5    0.74    0.22
   8   0   5    0.45    0.15
   8   0   6    4.30    0.49
   8   0   6    3.66    0.38
  -8   0  -6    3.90    0.45
   8   0   6    3.90    0.45
  -8   0  -6    4.33    0.47
  -8   0  -6    4.28    0.45
  -8   0  -6    4.06    0.37
   8   0   6    3.76    0.40
  -8   0  -6    4.05    0.44
   8   0   7   38.75    1.47
   8   0   7   39.55    1.20
  -8   0  -7   37.08    1.16
  -8   0  -7   37.53    1.43
  -8   0  -7   39.58    1.45
  -8   0  -7   39.52    1.27
   8   0   7   41.29    1.45
  -8   0  -7   38.48    1.33
   8   0   8  165.28    3.35
   8   0   8  168.75    3.07
  -8   0  -8  153.21    2.89
  -8   0  -8  155.47    3.24
  -8   0  -8  161.61    3.23
   8   0   8  159.90    3.28
  -8   0  -8  151.68    2.82
   8   0   9  113.27    2.52
   8   0   9  117.26    2.14
  -8   0  -9  120.34    2.33
  -8   0  -9  116.31    2.56
  -8   0  -9  118.54    2.43
   8   0   9  115.17    2.41
   8   0   9  122.58    2.62
  -8   0 -10    4.31    0.33
  -8   0 -10    3.69    0.35
  -8   0 -10    3.98    0.30
   8   0  10    3.91    0.33
   8   0  10    4.42    0.38
  -8  -1   2  239.19    3.86
   8   1  -2  236.92    3.82
   8   1  -2  249.85    3.94
  -8  -1   2  243.06    4.02
  -8  -1   1   88.31    2.04
   8   1  -1   87.41    2.09
   8   1  -1   86.40    2.15
  -8  -1   1   88.91    2.23
  -8  -1   1   90.12    2.13
  -8  -1   0    9.67    0.67
   8   1   0    9.12    0.66
   8   1   0   10.23    0.72
  -8  -1   0    9.08    0.52
  -8  -1   0   10.78    0.71
  -8  -1  -1    4.42    0.47
   8   1   1    4.30    0.48
   8   1   1    4.18    0.49
  -8  -1  -1    5.90    0.49
  -8  -1  -1    4.98    0.52
  -8  -1  -2   14.96    0.86
   8   1   2   14.80    0.90
   8   1   2   15.66    0.94
  -8  -1  -2   17.70    0.91
  -8  -1  -2   13.94    0.86
   8   1   3  286.75    5.15
  -8  -1  -3  283.30    4.99
   8   1   3  299.11    5.24
  -8  -1  -3  295.48    4.52
  -8  -1  -3  290.13    5.09
  -8  -1  -3  283.30    4.93
   8   1   4    9.94    0.74
  -8  -1  -4   10.54    0.73
   8   1   4   11.46    0.79
  -8  -1  -4   10.74    0.66
  -8  -1  -4   11.26    0.78
   8   1   4   10.76    0.57
  -8  -1  -4   11.24    0.75
   8   1   5    3.95    0.48
  -8  -1  -5    4.11    0.46
   8   1   5    3.94    0.47
  -8  -1  -5    3.86    0.43
  -8  -1  -5    4.40    0.49
  -8  -1  -5    3.60    0.37
   8   1   5    3.62    0.37
  -8  -1  -5    4.43    0.45
   8   1   6   45.95    1.66
  -8  -1  -6   47.79    1.65
   8   1   6   47.46    1.68
  -8  -1  -6   48.40    1.63
  -8  -1  -6   50.23    1.60
   8   1   6   48.15    1.53
  -8  -1  -6   47.05    1.48
   8   1   7  116.83    2.83
   8   1   7  125.78    2.82
  -8  -1  -7  118.56    2.43
   8   1   7  112.97    2.81
  -8  -1  -7  120.45    2.86
  -8  -1  -7  124.71    2.83
  -8  -1  -7  123.32    2.52
   8   1   7  117.57    2.73
  -8  -1  -7  120.76    2.42
   8   1   8  117.79    2.76
   8   1   8  118.27    2.59
  -8  -1  -8  115.75    2.46
  -8  -1  -8  120.19    2.83
   8   1   8  119.43    2.77
   8   1   9   11.39    0.59
   8   1   9   11.62    0.71
  -8  -1  -9   12.27    0.65
  -8  -1  -9   11.17    0.65
  -8  -1  -9   11.29    0.73
   8   1   9   11.90    0.74
  -8  -1 -10    1.16    0.19
  -8  -1 -10    1.10    0.17
   8   1  10    1.19    0.20
  -8  -1 -10    1.21    0.23
   8   1  10    1.08    0.21
  -8  -2   3   92.75    1.78
   8   2  -3   94.67    1.78
  -8  -2   3   90.42    1.84
  -8  -2   2   36.84    1.15
   8   2  -2   36.55    1.05
   8   2  -2   38.49    1.23
  -8  -2   2   36.69    1.23
  -8  -2   2   37.94    1.09
   8   2  -1    0.92    0.20
   8   2  -1    0.76    0.21
  -8  -2   1    1.27    0.26
  -8  -2   1    0.83    0.23
  -8  -2   1    0.69    0.19
  -8  -2   0    9.00    0.66
   8   2   0    8.81    0.62
   8   2   0    8.08    0.67
  -8  -2   0    8.96    0.51
  -8  -2   0    8.91    0.65
  -8  -2  -1    2.32    0.35
   8   2   1    1.94    0.31
   8   2   1    2.25    0.38
  -8  -2  -1    2.37    0.28
  -8  -2  -1    1.74    0.27
  -8  -2  -1    2.27    0.36
  -8  -2  -2  197.34    3.85
   8   2   2  195.32    3.82
   8   2   2  192.22    4.01
  -8  -2  -2  202.31    3.76
  -8  -2  -2  192.80    3.83
   8   2   3   59.86    1.86
  -8  -2  -3   62.71    1.89
   8   2   3   61.69    1.99
  -8  -2  -3   60.95    1.54
  -8  -2  -3   63.45    1.90
  -8  -2  -3   61.35    1.79
   8   2   4   67.51    2.01
  -8  -2  -4   67.31    1.99
   8   2   4   70.40    2.11
  -8  -2  -4   70.11    1.83
  -8  -2  -4   72.51    2.06
   8   2   4   72.93    1.70
  -8  -2  -4   67.65    1.77
   8   2   5    1.80    0.33
  -8  -2  -5    2.72    0.39
   8   2   5    3.42    0.45
  -8  -2  -5    2.24    0.33
  -8  -2  -5    2.26    0.35
  -8  -2  -5    1.53    0.24
   8   2   5    2.16    0.30
   8   2   5    2.86    0.34
  -8  -2  -5    2.47    0.33
   8   2   6   66.63    2.01
   8   2   6   68.02    2.06
  -8  -2  -6   69.34    1.66
  -8  -2  -6   71.71    2.07
   8   2   6   68.65    2.08
  -8  -2  -6   68.93    2.01
  -8  -2  -6   68.52    1.92
   8   2   6   70.34    1.62
   8   2   6   66.60    1.87
   8   2   7  116.87    2.78
   8   2   7  119.52    2.80
  -8  -2  -7  114.21    2.44
   8   2   7  112.71    2.82
  -8  -2  -7  120.01    2.79
  -8  -2  -7  120.05    2.87
  -8  -2  -7  118.03    2.45
   8   2   7  113.34    2.69
   8   2   8   17.43    0.94
   8   2   8   18.50    0.92
  -8  -2  -8   16.56    0.82
  -8  -2  -8   17.22    0.91
  -8  -2  -8   17.82    1.00
   8   2   8   17.31    0.94
   8   2   9    1.38    0.26
   8   2   9    1.40    0.23
  -8  -2  -9    1.53    0.25
  -8  -2  -9    1.09    0.22
  -8  -2  -9    1.13    0.26
   8   2   9    1.29    0.26
  -8  -2 -10    8.47    0.49
  -8  -2 -10    7.30    0.42
  -8  -2 -10    8.35    0.57
   8   2  10    7.90    0.50
   8   2  10    8.57    0.54
  -8  -3   3   10.17    0.48
   8   3  -3    9.86    0.47
  -8  -3   3   10.08    0.51
   8   3  -3    8.81    0.30
  -8  -3   2    5.84    0.44
   8   3  -2    5.95    0.46
  -8  -3   2    5.62    0.46
  -8  -3   2    6.33    0.42
   8   3  -1   18.16    0.74
   8   3  -1   18.76    0.94
  -8  -3   1   17.19    0.66
  -8  -3   1   17.10    0.89
  -8  -3   1   17.66    0.85
  -8  -3   1   17.42    0.88
  -8  -3   0   41.75    1.47
  -8  -3   0   40.78    1.22
   8   3   0   40.96    1.28
   8   3   0   43.69    1.57
  -8  -3   0   42.76    1.17
  -8  -3   0   42.91    1.47
  -8  -3   0   42.14    1.49
  -8  -3  -1   61.87    1.88
   8   3   1   62.20    1.71
   8   3   1   65.19    2.03
  -8  -3  -1   62.90    1.67
  -8  -3  -1   59.63    1.84
  -8  -3  -2   82.71    2.25
   8   3   2   83.05    2.09
   8   3   2   87.78    2.43
  -8  -3  -2   86.55    2.18
  -8  -3  -2   89.18    2.29
   8   3   3   78.37    2.06
  -8  -3  -3   84.32    2.22
   8   3   3   82.55    2.36
  -8  -3  -3   79.88    1.82
  -8  -3  -3   80.33    2.19
  -8  -3  -3   82.38    2.08
   8   3   4  103.13    2.44
  -8  -3  -4  103.02    2.52
   8   3   4  103.77    2.48
   8   3   4   97.73    2.63
  -8  -3  -4  105.60    2.33
  -8  -3  -4  103.40    2.57
   8   3   4   97.76    2.16
  -8  -3  -4  103.60    2.21
   8   3   5   16.83    0.90
   8   3   5   17.40    0.96
  -8  -3  -5   17.65    0.96
   8   3   5   16.74    0.99
  -8  -3  -5   18.25    0.94
  -8  -3  -5   17.11    0.94
   8   3   5   17.26    0.86
   8   3   5   17.31    0.86
   8   3   6    7.27    0.60
   8   3   6    8.47    0.68
  -8  -3  -6    6.55    0.48
  -8  -3  -6    8.76    0.68
   8   3   6    7.12    0.64
  -8  -3  -6    8.08    0.64
  -8  -3  -6    7.67    0.60
   8   3   6    7.83    0.52
   8   3   6    7.17    0.58
   8   3   7   44.62    1.52
   8   3   7   44.96    1.61
  -8  -3  -7   45.18    1.40
   8   3   7   43.60    1.61
  -8  -3  -7   48.22    1.66
  -8  -3  -7   46.99    1.60
  -8  -3  -7   45.53    1.37
   8   3   7   44.50    1.57
   8   3   8   13.41    0.78
   8   3   8   14.04    0.82
  -8  -3  -8   13.93    0.75
  -8  -3  -8   12.71    0.83
   8   3   8   14.27    0.85
   8   3   9   89.47    2.03
   8   3   9   84.57    1.99
  -8  -3  -9   84.89    1.98
  -8  -3  -9   88.27    1.99
  -8  -3  -9   84.43    2.21
   8   3   9   84.27    2.13
   8   3  10   32.30    0.89
  -8  -3 -10   32.05    0.98
  -8  -3 -10   30.35    0.86
  -8  -3 -10   31.04    1.10
   8   3  10   29.46    0.97
  -8  -4   3   36.41    0.95
   8   4  -2  180.14    3.10
  -8  -4   2  173.11    3.11
  -8  -4   2  179.15    2.98
   8   4  -2  174.97    2.79
   8   4  -1  119.66    2.58
  -8  -4   1  116.57    2.51
  -8  -4   1  113.89    2.45
  -8  -4   1  114.74    2.25
  -8  -4   1  117.69    2.50
  -8  -4   0   50.59    1.57
  -8  -4   0   48.26    1.44
   8   4   0   50.57    1.65
  -8  -4   0   48.55    1.24
  -8  -4   0   51.59    1.60
  -8  -4   0   50.18    1.55
  -8  -4  -1    9.30    0.67
   8   4   1    9.68    0.72
  -8  -4  -1    9.70    0.60
  -8  -4  -1    9.49    0.69
  -8  -4  -1    9.82    0.65
  -8  -4  -2    7.70    0.61
   8   4   2    7.95    0.51
   8   4   2    7.04    0.46
   8   4   2    7.47    0.65
  -8  -4  -2    7.63    0.59
  -8  -4  -2    7.88    0.61
   8   4   3  103.53    2.24
  -8  -4  -3  111.48    2.58
   8   4   3  106.44    2.31
   8   4   3  107.17    2.70
  -8  -4  -3  103.96    2.18
  -8  -4  -3  107.69    2.60
  -8  -4  -3  112.66    2.46
   8   4   4   85.05    2.01
   8   4   4   85.19    2.18
  -8  -4  -4   88.60    2.25
   8   4   4   83.17    2.34
  -8  -4  -4   87.77    2.10
  -8  -4  -4   86.98    2.33
  -8  -4  -4   93.17    1.98
   8   4   4   86.60    2.29
   8   4   5    1.07    0.22
   8   4   5    1.23    0.28
   8   4   5    1.17    0.28
  -8  -4  -5    1.29    0.28
  -8  -4  -5    1.13    0.27
  -8  -4  -5    1.13    0.25
   8   4   5    1.43    0.28
   8   4   6    1.48    0.26
   8   4   6    1.62    0.32
  -8  -4  -6    2.13    0.34
  -8  -4  -6    1.80    0.27
   8   4   6    1.75    0.32
  -8  -4  -6    1.46    0.29
  -8  -4  -6    1.51    0.28
   8   4   6    1.60    0.26
   8   4   6    1.68    0.30
   8   4   7   28.99    1.11
   8   4   7   27.86    1.26
  -8  -4  -7   31.46    1.14
  -8  -4  -7   31.66    1.28
  -8  -4  -7   32.41    1.30
  -8  -4  -7   31.31    1.10
   8   4   7   29.97    0.99
   8   4   7   29.69    1.26
   8   4   8  162.90    3.33
   8   4   8  162.77    3.05
  -8  -4  -8  167.63    3.15
  -8  -4  -8  159.58    3.32
  -8  -4  -8  164.95    3.26
   8   4   9  100.92    2.22
  -8  -4  -9  102.74    2.16
  -8  -4  -9   98.01    2.30
  -8  -4  -9   96.58    2.08
   8   4   9   96.09    2.10
  -8  -4 -10    6.98    0.42
  -8  -4 -10    6.47    0.45
   8   4  10    6.05    0.37
   8   5  -2  204.69    3.23
  -8  -5   2  211.11    3.18
   8   5  -2  208.38    2.99
  -8  -5   2  207.15    3.28
   8   5  -1   17.46    0.64
   8   5  -1   16.99    0.77
  -8  -5   1   17.39    0.75
  -8  -5   1   17.21    0.79
   8   5  -1   16.96    0.71
  -8  -5   1   17.34    0.76
  -8  -5   1   17.88    0.78
  -8  -5   0    8.48    0.59
   8   5   0    8.60    0.52
   8   5   0    8.37    0.59
  -8  -5   0    8.38    0.45
  -8  -5   0    7.69    0.58
  -8  -5   0    9.23    0.57
   8   5   0    8.04    0.56
  -8  -5   0    8.80    0.58
  -8  -5  -1   21.89    0.96
   8   5   1   20.90    0.86
   8   5   1   21.51    1.01
  -8  -5  -1   20.90    0.87
  -8  -5  -1   20.72    0.98
  -8  -5  -1   20.95    0.99
  -8  -5  -1   21.19    0.87
   8   5   1   20.10    0.97
  -8  -5  -2   45.80    1.46
   8   5   2   43.42    1.32
   8   5   2   44.15    1.53
  -8  -5  -2   43.90    1.46
  -8  -5  -2   44.27    1.48
  -8  -5  -2   43.69    1.27
   8   5   2   44.65    1.57
  -8  -5  -3  170.48    3.28
   8   5   3  167.95    3.01
   8   5   3  164.65    3.41
  -8  -5  -3  162.85    2.96
  -8  -5  -3  168.11    3.44
  -8  -5  -3  169.46    3.19
   8   5   3  166.12    3.51
   8   5   4   22.55    0.99
  -8  -5  -4   21.96    0.98
   8   5   4   21.06    1.03
  -8  -5  -4   20.90    0.94
  -8  -5  -4   21.49    1.07
   8   5   4   22.40    1.10
  -8  -5  -4   22.87    0.84
   8   5   5    8.87    0.66
  -8  -5  -5    8.68    0.61
  -8  -5  -5    7.72    0.49
   8   5   5    7.55    0.60
  -8  -5  -5    8.15    0.62
  -8  -5  -5    8.75    0.66
   8   5   5    8.36    0.65
  -8  -5  -6    2.38    0.34
   8   5   6    2.09    0.35
  -8  -5  -6    3.28    0.35
   8   5   6    3.30    0.39
  -8  -5  -6    2.72    0.38
  -8  -5  -6    2.05    0.32
   8   5   6    1.90    0.30
   8   5   7  164.54    3.43
  -8  -5  -7  166.34    3.13
  -8  -5  -7  165.39    3.21
  -8  -5  -7  172.04    3.38
  -8  -5  -7  163.39    3.00
   8   5   7  160.64    2.97
   8   5   8  127.78    2.83
  -8  -5  -8  133.87    2.65
  -8  -5  -8  129.29    2.67
  -8  -5  -8  135.58    2.75
  -8  -5  -9    9.25    0.44
   8   5   9   11.21    0.63
  -8  -5  -9   11.51    0.59
  -8  -5  -9   10.37    0.58
  -8  -5  -9   10.95    0.56
   8   5   9   10.62    0.50
   8   5  10    7.35    0.38
  -8  -5 -10    6.37    0.33
  -8  -6   2   31.95    0.88
  -8  -6   2   33.03    0.89
   8   6  -1    3.63    0.30
   8   6  -1    3.47    0.27
   8   6  -1    3.26    0.27
  -8  -6   1    3.66    0.34
  -8  -6   1    3.69    0.35
  -8  -6   0   13.97    0.74
   8   6   0   13.03    0.65
   8   6   0   13.33    0.64
  -8  -6   0   12.98    0.51
   8   6   0   12.97    0.67
  -8  -6   0   13.11    0.72
  -8  -6   0   12.89    0.60
   8   6   1   22.51    0.93
   8   6   1   22.65    0.91
  -8  -6  -1   23.50    1.04
  -8  -6  -1   21.38    0.85
  -8  -6  -1   21.99    0.98
   8   6   1   23.17    1.00
  -8  -6  -1   22.45    0.85
  -8  -6  -2  154.91    2.84
   8   6   2  157.96    3.04
   8   6   2  149.03    2.93
  -8  -6  -2  153.13    3.05
   8   6   2  155.37    3.23
  -8  -6  -2  160.29    3.09
  -8  -6  -3  173.81    3.10
   8   6   3  173.68    2.92
   8   6   3  169.66    3.20
  -8  -6  -3  167.49    2.98
  -8  -6  -3  165.85    3.39
   8   6   3  173.05    3.57
  -8  -6  -3  172.95    3.14
  -8  -6  -4   34.53    1.13
   8   6   4   34.19    1.17
   8   6   4   34.07    1.18
  -8  -6  -4   32.51    1.16
  -8  -6  -4   34.79    1.34
   8   6   4   35.31    1.40
   8   6   5    2.68    0.35
  -8  -6  -5    2.33    0.30
   8   6   5    2.45    0.31
  -8  -6  -5    2.65    0.35
  -8  -6  -5    3.02    0.39
   8   6   5    2.04    0.34
   8   6   6   49.35    1.62
  -8  -6  -6   48.49    1.33
  -8  -6  -6   45.48    1.52
  -8  -6  -6   51.66    1.54
   8   6   6   48.41    1.54
   8   6   7   51.67    1.65
  -8  -6  -7   51.55    1.34
  -8  -6  -7   52.86    1.46
  -8  -6  -7   53.07    1.59
  -8  -6  -7   52.40    1.39
   8   6   7   54.39    1.47
   8   6   8    8.20    0.59
  -8  -6  -8    8.06    0.43
  -8  -6  -8    9.53    0.56
   8   6   9    1.37    0.22
  -8  -6  -9    1.31    0.20
  -8  -6  -9    1.11    0.18
   8   7  -1   26.20    0.77
   8   7  -1   27.79    0.64
  -8  -7   1   26.93    0.89
  -8  -7   1   26.35    0.84
  -8  -7   0   31.32    1.08
   8   7   0   29.91    0.98
   8   7   0   28.83    0.91
  -8  -7   0   30.48    1.02
  -8  -7  -1   74.63    1.90
   8   7   1   74.09    1.80
  -8  -7  -1   72.54    1.61
   8   7   1   73.85    1.81
  -8  -7  -1   75.57    1.81
  -8  -7  -2   64.74    1.68
  -8  -7  -2   67.25    1.86
   8   7   2   65.17    1.81
  -8  -7  -2   66.26    1.65
  -8  -7  -3   35.20    1.05
  -8  -7  -3   35.62    1.28
   8   7   3   37.24    1.39
  -8  -7  -3   37.15    1.09
   8   7   4   25.87    0.90
  -8  -7  -4   24.74    0.95
  -8  -7  -4   25.99    1.10
   8   7   4   27.02    1.18
   8   7   5    3.17    0.35
  -8  -7  -5    3.08    0.35
  -8  -7  -5    3.25    0.38
   8   7   5    3.15    0.40
   8   7   6   18.85    0.88
  -8  -7  -6   19.13    0.88
  -8  -7  -6   18.20    0.82
   8   7   6   18.39    0.89
   8   7   7   13.94    0.75
  -8  -7  -7   14.36    0.66
  -8  -7  -7   15.25    0.74
   8   7   7   14.30    0.68
  -8  -7  -7   13.81    0.58
   8   7   8   12.19    0.65
  -8  -7  -8   13.28    0.59
  -8  -7  -8   13.58    0.61
   8   8   0   13.39    0.47
  -8  -8   0   13.71    0.57
  -8  -8   0   13.77    0.61
  -8  -8  -1    4.18    0.37
  -8  -8  -1    3.32    0.25
   8   8   1    3.77    0.32
  -8  -8  -1    3.75    0.32
  -8  -8  -2    0.62    0.15
  -8  -8  -2    0.98    0.18
   8   8   2    0.55    0.17
  -8  -8  -2    0.78    0.20
  -8  -8  -3   31.13    0.84
  -8  -8  -3   31.96    1.10
   8   8   3   32.97    1.19
  -8  -8  -4   17.87    0.72
  -8  -8  -4   17.07    0.80
   8   8   4   18.88    0.91
   8   8   5   19.30    0.72
  -8  -8  -5   19.58    0.79
  -8  -8  -5   19.70    0.83
   8   8   5   19.35    0.90
   8   8   6    5.45    0.40
  -8  -8  -6    5.81    0.42
   8   8   6    5.42    0.44
  -8  -8  -6    5.28    0.38
   8   8   7   51.30    1.30
  -8  -8  -7   46.52    1.10
  -8  -8  -7   48.90    1.24
   8   8   7   48.39    1.21
   8   9   2   19.71    0.69
  -8  -9  -2   18.93    0.69
  -8  -9  -3   90.74    1.78
  -8  -9  -3   91.53    1.80
   8   9   3   92.66    1.91
  -8  -9  -4   64.94    1.38
  -8  -9  -4   64.93    1.48
  -8  -9  -5   10.72    0.39
   8   9   5   11.92    0.60
  -8  -9  -5   10.73    0.50
  -9   3  -2    4.58    0.29
   9  -3   3   11.97    0.56
  -9   3  -3   11.44    0.56
  -9   3  -3   12.12    0.55
   9  -3   4   51.58    1.19
   9  -3   4   51.95    1.31
  -9   3  -4   50.07    1.29
  -9   3  -4   50.28    1.31
  -9   3  -4   52.20    1.31
   9  -3   5    5.42    0.34
   9  -3   5    5.17    0.37
  -9   3  -5    5.89    0.42
  -9   3  -5    5.85    0.40
  -9   3  -5    6.34    0.47
  -9   3  -5    5.94    0.42
   9  -3   6   14.43    0.60
  -9   3  -6   13.94    0.63
  -9   3  -6   14.06    0.69
   9  -3   7   10.32    0.41
   9  -3   7   10.37    0.37
  -9   3  -7   10.96    0.56
   9  -2   1   12.42    0.54
  -9   2  -1   12.44    0.53
  -9   2  -1   12.23    0.52
  -9   2  -1   12.53    0.45
   9  -2   2    6.67    0.44
  -9   2  -2    6.29    0.37
  -9   2  -2    6.69    0.45
  -9   2  -2    6.59    0.39
   9  -2   3    5.34    0.42
  -9   2  -3    5.30    0.41
  -9   2  -3    5.40    0.42
  -9   2  -3    4.89    0.42
  -9   2  -3    5.10    0.38
   9  -2   4   30.61    1.08
   9  -2   4   32.82    1.10
  -9   2  -4   33.03    1.13
  -9   2  -4   30.93    1.12
  -9   2  -4   30.27    1.09
  -9   2  -4   32.07    1.19
  -9   2  -4   32.32    1.06
   9  -2   5   33.08    1.11
   9  -2   5   33.47    1.09
  -9   2  -5   34.72    1.19
  -9   2  -5   33.95    0.98
  -9   2  -5   33.31    1.15
  -9   2  -5   34.27    1.12
  -9   2  -5   36.19    1.29
   9  -2   6   82.18    1.84
   9  -2   6   83.04    1.79
  -9   2  -6   81.84    1.90
  -9   2  -6   84.11    1.80
  -9   2  -6   82.15    1.85
   9  -2   6   81.68    1.51
  -9   2  -6   87.74    2.09
   9  -2   7   94.92    1.93
   9  -2   7   93.82    1.80
   9  -2   7   98.16    1.90
  -9   2  -7   94.75    1.95
  -9   2  -7   91.74    1.90
   9  -2   7   91.39    1.79
  -9   2  -7   90.52    2.04
   9  -2   8   14.12    0.56
  -9   2  -8   14.50    0.62
   9  -2   8   15.32    0.61
  -9   2  -8   13.36    0.59
   9  -1   0   20.09    0.71
  -9   1   0   20.13    0.70
   9  -1   1   26.51    0.94
  -9   1  -1   25.58    0.90
  -9   1  -1   26.14    0.95
  -9   1  -1   25.94    0.66
  -9   1  -1   25.51    0.77
  -9   1  -2   29.52    0.92
   9  -1   2   30.55    1.11
   9  -1   2   28.37    0.86
  -9   1  -2   29.70    1.00
  -9   1  -2   29.05    1.07
  -9   1  -2   30.50    0.88
  -9   1  -3   27.00    0.94
   9  -1   3   27.52    1.10
   9  -1   3   26.67    0.91
  -9   1  -3   28.68    1.08
  -9   1  -3   24.74    1.04
  -9   1  -3   27.01    0.91
  -9   1  -4   17.57    0.77
   9  -1   4   17.25    0.88
   9  -1   4   17.21    0.75
  -9   1  -4   18.73    0.90
  -9   1  -4   18.30    0.87
  -9   1  -4   18.25    0.94
  -9   1  -5  160.63    2.95
   9  -1   5  160.95    3.17
   9  -1   5  156.97    2.94
   9  -1   5  158.43    2.88
  -9   1  -5  161.27    2.86
  -9   1  -5  161.89    3.17
  -9   1  -5  152.61    2.96
  -9   1  -5  162.73    3.27
   9  -1   6   85.40    2.11
   9  -1   6   88.42    1.93
  -9   1  -6   89.34    2.00
  -9   1  -6   93.34    2.05
  -9   1  -6   91.77    2.12
  -9   1  -6   84.16    1.87
   9  -1   6   92.39    1.85
  -9   1  -6   98.43    2.31
   9  -1   7    3.65    0.37
   9  -1   7    3.77    0.31
  -9   1  -7    4.73    0.39
   9  -1   7    5.34    0.43
  -9   1  -7    3.95    0.36
  -9   1  -7    4.07    0.38
  -9   1  -7    3.91    0.35
   9  -1   7    4.31    0.37
  -9   1  -7    4.54    0.42
   9  -1   8    0.90    0.18
   9  -1   8    1.08    0.17
  -9   1  -8    0.89    0.18
  -9   1  -8    0.70    0.14
  -9   1  -8    0.95    0.17
  -9   1  -8    1.04    0.18
   9  -1   8    0.81    0.18
   9  -1   9    0.57    0.13
  -9   1  -9    0.72    0.15
  -9   1  -9    0.60    0.12
   9  -1   9    0.79    0.16
   9   0   0  120.33    2.29
   9   0   0  124.70    2.15
  -9   0   0  120.50    2.24
  -9   0   0  125.63    2.41
  -9   0   0  122.58    2.19
   9   0   1   85.04    1.99
   9   0   1   89.08    1.91
  -9   0  -1   83.57    1.68
  -9   0  -1   84.90    1.98
  -9   0  -1   85.85    1.88
  -9   0  -2   49.92    1.43
   9   0   2   47.43    1.50
   9   0   2   49.61    1.44
  -9   0  -2   49.80    1.40
  -9   0  -2   49.39    1.53
  -9   0  -2   49.79    1.11
  -9   0  -3    8.57    0.59
   9   0   3    8.44    0.63
   9   0   3    9.02    0.60
  -9   0  -3    8.16    0.59
  -9   0  -3    8.60    0.62
  -9   0  -3    8.64    0.48
  -9   0  -4    9.09    0.62
   9   0   4    8.92    0.66
   9   0   4    8.38    0.60
  -9   0  -4    8.32    0.46
  -9   0  -4    9.05    0.65
  -9   0  -4    8.26    0.59
   9   0   5  106.74    2.55
   9   0   5  106.69    2.24
  -9   0  -5  109.43    2.46
   9   0   5  106.55    2.43
  -9   0  -5  110.07    2.26
  -9   0  -5  109.95    2.53
  -9   0  -5  102.44    2.29
   9   0   5  107.29    1.97
  -9   0  -5  113.84    2.60
   9   0   6   10.93    0.71
   9   0   6    9.54    0.53
  -9   0  -6   10.77    0.69
   9   0   6   10.24    0.65
  -9   0  -6   10.43    0.64
  -9   0  -6   11.58    0.69
  -9   0  -6    9.89    0.54
   9   0   6   10.85    0.58
  -9   0  -6   10.65    0.68
   9   0   7    0.48    0.17
   9   0   7    0.59    0.18
  -9   0  -7    0.70    0.20
  -9   0  -7    0.80    0.18
  -9   0  -7    0.44    0.17
  -9   0  -7    0.48    0.16
   9   0   7    0.79    0.19
   9   0   8    2.08    0.29
   9   0   8    1.75    0.24
  -9   0  -8    1.62    0.26
  -9   0  -8    1.60    0.25
   9   0   8    2.04    0.29
  -9   0  -8    1.62    0.20
   9   0   9   63.92    1.53
   9   0   9   64.40    1.32
  -9   0  -9   62.08    1.54
  -9   0  -9   67.05    1.51
   9   0   9   60.89    1.41
   9   0   9   68.26    1.61
  -9  -1   1  119.49    2.01
  -9  -1   1  124.43    2.26
  -9  -1   0   92.53    1.79
   9   1   0   92.49    1.93
   9   1   0   95.83    2.00
  -9  -1   0   90.60    1.94
  -9  -1   0   93.69    2.10
  -9  -1   0   92.84    1.98
  -9  -1  -1   32.96    1.16
  -9  -1  -1   33.79    0.97
   9   1   1   32.61    1.14
   9   1   1   34.93    1.21
  -9  -1  -1   33.45    0.99
  -9  -1  -2    4.11    0.42
   9   1   2    4.30    0.44
   9   1   2    4.38    0.45
  -9  -1  -2    4.27    0.40
  -9  -1  -3    2.19    0.32
   9   1   3    1.82    0.30
   9   1   3    2.59    0.37
  -9  -1  -3    1.93    0.31
  -9  -1  -3    2.22    0.34
   9   1   4   14.25    0.84
  -9  -1  -4   15.06    0.85
   9   1   4   15.22    0.87
  -9  -1  -4   14.85    0.66
  -9  -1  -4   14.89    0.84
  -9  -1  -4   14.75    0.80
   9   1   5   56.25    1.75
   9   1   5   56.49    1.39
  -9  -1  -5   55.76    1.72
   9   1   5   56.40    1.76
  -9  -1  -5   52.35    1.48
  -9  -1  -5   57.74    1.74
  -9  -1  -5   52.95    1.49
   9   1   5   54.84    1.35
   9   1   5   53.46    1.41
   9   1   6   51.07    1.67
  -9  -1  -6   54.77    1.72
   9   1   6   54.54    1.70
  -9  -1  -6   55.52    1.60
  -9  -1  -6   56.73    1.65
   9   1   6   54.56    1.49
   9   1   7    9.64    0.66
   9   1   7   10.43    0.69
  -9  -1  -7   10.08    0.69
   9   1   7    9.92    0.67
  -9  -1  -7    9.52    0.63
  -9  -1  -7    9.60    0.58
   9   1   7    9.55    0.61
   9   1   8   63.96    1.77
   9   1   8   69.57    1.76
  -9  -1  -8   69.91    1.89
  -9  -1  -8   70.70    1.78
   9   1   8   69.44    1.79
   9   1   9   82.15    1.70
   9   1   9   80.21    1.83
  -9  -1  -9   81.22    1.93
  -9  -1  -9   84.95    1.81
   9   1   9   85.24    1.93
  -9  -1 -10   74.24    1.63
   9   1  10   78.93    1.63
  -9  -2   1   41.63    1.05
   9   2  -1   44.34    1.15
  -9  -2   1   43.17    1.20
  -9  -2   0   16.85    0.70
   9   2   0   16.74    0.69
   9   2   0   17.19    0.79
  -9  -2   0   17.83    0.83
  -9  -2   0   17.15    0.78
  -9  -2  -1    3.52    0.39
   9   2   1    3.52    0.35
   9   2   1    3.27    0.38
  -9  -2  -1    3.54    0.31
  -9  -2  -1    3.24    0.36
   9   2   2    1.55    0.26
   9   2   2    1.39    0.28
  -9  -2  -2    1.45    0.24
  -9  -2  -2    1.61    0.29
  -9  -2  -2    1.22    0.24
  -9  -2  -3   88.45    2.28
   9   2   3   86.82    2.18
   9   2   3   94.84    2.42
  -9  -2  -3   90.31    2.20
   9   2   4  121.92    2.74
  -9  -2  -4  128.68    2.85
   9   2   4  122.58    2.90
  -9  -2  -4  124.66    2.37
  -9  -2  -4  124.32    2.78
  -9  -2  -4  122.11    2.60
   9   2   5   39.01    1.39
  -9  -2  -5   37.56    1.42
   9   2   5   36.75    1.44
  -9  -2  -5   39.08    1.24
  -9  -2  -5   39.78    1.41
  -9  -2  -5   37.51    1.17
   9   2   5   37.35    1.13
   9   2   5   38.54    1.24
   9   2   6  165.09    3.36
   9   2   6  171.28    3.46
  -9  -2  -6  173.79    3.52
   9   2   6  175.39    3.54
  -9  -2  -6  168.92    3.24
  -9  -2  -6  166.98    3.29
   9   2   6  168.89    3.15
   9   2   6  170.63    2.87
   9   2   7   12.63    0.75
   9   2   7   13.56    0.80
  -9  -2  -7   12.23    0.79
   9   2   7   12.96    0.79
  -9  -2  -7   12.97    0.74
  -9  -2  -7   12.58    0.67
   9   2   7   12.05    0.71
   9   2   8   51.92    1.53
   9   2   8   53.38    1.56
  -9  -2  -8   54.57    1.69
  -9  -2  -8   54.90    1.55
  -9  -2  -8   53.46    1.19
   9   2   8   54.83    1.59
   9   2   9   11.97    0.60
   9   2   9   12.18    0.62
  -9  -2  -9   12.11    0.49
  -9  -2  -9   11.06    0.66
  -9  -2  -9   10.62    0.57
   9   2   9   12.13    0.66
  -9  -2 -10    1.44    0.22
  -9  -3   1   10.07    0.49
   9   3  -1    9.27    0.50
  -9  -3   1    8.98    0.51
   9   3   0   10.36    0.45
   9   3   0   10.73    0.62
  -9  -3   0   10.77    0.63
  -9  -3   0   11.37    0.60
  -9  -3   0   11.32    0.63
  -9  -3  -1   60.58    1.70
  -9  -3  -1   58.00    1.33
   9   3   1   56.82    1.42
   9   3   1   61.35    1.75
  -9  -3  -1   59.48    1.39
  -9  -3  -1   59.13    1.69
  -9  -3  -1   60.67    1.65
  -9  -3  -2   74.23    2.01
   9   3   2   70.12    1.73
   9   3   2   76.93    1.58
   9   3   2   74.82    2.10
  -9  -3  -2   74.59    1.80
  -9  -3  -2   77.24    1.95
  -9  -3  -3  135.57    2.93
   9   3   3  126.75    2.62
   9   3   3  126.31    2.52
   9   3   3  137.63    3.05
  -9  -3  -3  133.08    2.78
  -9  -3  -3  131.98    2.70
   9   3   4   24.00    1.00
  -9  -3  -4   24.63    1.12
   9   3   4   24.08    1.01
   9   3   4   23.35    1.13
  -9  -3  -4   23.65    0.86
  -9  -3  -4   24.03    1.07
  -9  -3  -4   22.82    0.90
   9   3   4   24.27    1.06
   9   3   5   24.68    1.02
  -9  -3  -5   24.37    1.13
   9   3   5   25.81    1.11
   9   3   5   23.57    1.14
  -9  -3  -5   23.99    0.96
  -9  -3  -5   26.23    1.12
   9   3   5   25.49    1.03
   9   3   6    8.19    0.58
   9   3   6    8.68    0.65
  -9  -3  -6    9.00    0.68
   9   3   6    8.60    0.68
  -9  -3  -6    8.45    0.60
  -9  -3  -6    9.68    0.65
   9   3   6    9.81    0.62
   9   3   6    9.45    0.55
   9   3   7   24.12    0.98
   9   3   7   21.49    1.03
  -9  -3  -7   23.20    1.08
   9   3   7   23.41    1.09
  -9  -3  -7   26.27    1.07
  -9  -3  -7   23.18    0.92
   9   3   7   23.56    1.01
   9   3   8    4.88    0.41
   9   3   8    5.19    0.47
  -9  -3  -8    5.32    0.51
  -9  -3  -8    4.36    0.32
  -9  -3  -8    4.87    0.43
  -9  -3  -8    4.89    0.31
   9   3   8    4.84    0.45
   9   3   9    6.41    0.45
   9   3   9    5.78    0.39
  -9  -3  -9    5.80    0.35
  -9  -3  -9    5.38    0.47
  -9  -3  -9    5.97    0.42
   9   3  10   14.27    0.50
  -9  -3 -10   13.53    0.62
  -9  -4   1   46.24    1.13
   9   4  -1   45.72    1.13
  -9  -4   1   43.84    1.12
   9   4  -1   44.58    1.04
  -9  -4   1   44.12    1.08
   9   4   0   85.12    1.88
  -9  -4   0   80.57    1.82
  -9  -4   0   81.86    1.80
   9   4   0   81.32    1.78
  -9  -4   0   80.08    1.56
  -9  -4   0   84.34    1.88
  -9  -4  -1   80.22    1.94
  -9  -4  -1   76.83    1.72
   9   4   1   78.13    1.95
  -9  -4  -1   76.57    1.60
  -9  -4  -1   77.20    1.85
  -9  -4  -1   77.07    1.87
   9   4   1   76.21    1.88
  -9  -4  -2   32.21    1.22
   9   4   2   33.33    1.28
  -9  -4  -2   32.09    1.08
  -9  -4  -2   34.41    1.17
  -9  -4  -2   33.77    1.19
   9   4   2   35.95    1.29
  -9  -4  -3   10.99    0.71
   9   4   3   10.08    0.54
   9   4   3    9.64    0.69
  -9  -4  -3    9.56    0.63
  -9  -4  -3   10.65    0.62
   9   4   3   10.40    0.70
  -9  -4  -4    6.53    0.55
   9   4   4    6.42    0.44
   9   4   4    7.04    0.51
   9   4   4    6.62    0.58
  -9  -4  -4    6.86    0.45
  -9  -4  -4    6.60    0.55
   9   4   4    6.63    0.56
  -9  -4  -4    6.82    0.46
   9   4   5   27.41    0.96
  -9  -4  -5   29.31    1.19
   9   4   5   28.17    1.14
   9   4   5   28.05    1.20
  -9  -4  -5   27.93    1.02
  -9  -4  -5   25.78    1.11
   9   4   5   27.69    1.11
   9   4   6   30.32    1.03
   9   4   6   30.13    1.22
  -9  -4  -6   32.47    1.25
   9   4   6   30.67    1.23
  -9  -4  -6   31.01    1.15
  -9  -4  -6   31.05    1.16
   9   4   6   31.42    1.09
   9   4   7   12.54    0.62
   9   4   7   12.53    0.76
  -9  -4  -7   12.27    0.75
  -9  -4  -7   11.46    0.68
  -9  -4  -7   12.75    0.65
   9   4   7   12.39    0.55
   9   4   8   11.46    0.69
   9   4   8   11.04    0.52
  -9  -4  -8   11.20    0.68
  -9  -4  -8   10.37    0.50
  -9  -4  -8   11.30    0.64
   9   4   9   61.32    1.50
  -9  -4  -9   56.96    1.52
  -9  -4  -9   57.74    1.24
  -9  -4  -9   61.54    1.42
   9   4   9   57.35    1.39
   9   5  -1   31.32    0.75
   9   5   0  108.62    2.04
   9   5   0  106.47    2.03
  -9  -5   0  102.45    1.92
  -9  -5   0  104.61    2.05
  -9  -5   0  107.41    1.96
  -9  -5   0  101.87    2.02
   9   5   1    0.93    0.19
  -9  -5  -1    0.81    0.14
  -9  -5  -1    1.03    0.20
  -9  -5  -1    1.03    0.18
  -9  -5  -1    1.15    0.21
  -9  -5  -1    0.98    0.19
   9   5   1    0.91    0.19
  -9  -5  -2    5.66    0.46
   9   5   2    5.87    0.47
  -9  -5  -2    5.51    0.41
  -9  -5  -2    5.85    0.47
   9   5   2    5.15    0.47
  -9  -5  -2    5.37    0.38
  -9  -5  -2    4.94    0.42
   9   5   3    1.89    0.21
   9   5   3    1.60    0.26
  -9  -5  -3    2.40    0.31
  -9  -5  -3    1.51    0.25
  -9  -5  -3    1.90    0.26
   9   5   3    1.43    0.28
  -9  -5  -4  101.01    2.27
   9   5   4   95.35    2.05
   9   5   4   97.69    2.28
  -9  -5  -4   96.37    1.94
  -9  -5  -4   95.25    2.26
   9   5   4   98.15    2.37
  -9  -5  -5  147.43    2.88
   9   5   5  138.82    2.79
   9   5   5  137.64    2.83
  -9  -5  -5  140.13    2.66
  -9  -5  -5  141.58    2.89
   9   5   6   81.53    2.08
  -9  -5  -6   87.37    2.05
   9   5   6   81.48    1.99
  -9  -5  -6   86.55    2.00
  -9  -5  -6   84.46    2.01
   9   5   6   83.22    1.97
   9   5   7    1.48    0.27
  -9  -5  -7    1.43    0.23
  -9  -5  -7    1.37    0.21
  -9  -5  -7    1.39    0.24
   9   5   7    1.29    0.20
   9   5   8   36.60    1.20
  -9  -5  -8   33.54    1.09
  -9  -5  -8   32.78    0.89
  -9  -5  -8   34.92    1.10
   9   5   9  115.88    2.18
  -9  -5  -9  117.43    2.06
   9   6   0   12.60    0.51
  -9  -6   0   12.52    0.54
  -9  -6   0   12.86    0.55
   9   6   1    0.67    0.13
  -9  -6  -1    0.72    0.12
  -9  -6  -1    0.91    0.16
  -9  -6  -1    1.01    0.18
  -9  -6  -1    1.02    0.19
   9   6   1    0.81    0.17
   9   6   2    1.73    0.22
  -9  -6  -2    1.75    0.22
   9   6   2    1.72    0.27
  -9  -6  -2    2.15    0.26
  -9  -6  -2    1.54    0.26
  -9  -6  -2    1.67    0.22
  -9  -6  -3  147.80    2.62
   9   6   3  143.41    2.64
  -9  -6  -3  143.48    2.74
   9   6   3  147.13    2.96
  -9  -6  -3  145.12    2.53
  -9  -6  -4  111.49    2.19
   9   6   4  109.10    2.06
   9   6   4  111.24    2.23
  -9  -6  -4  110.00    2.01
  -9  -6  -4  110.36    2.38
   9   6   4  111.58    2.51
  -9  -6  -5   61.92    1.49
   9   6   5   60.00    1.54
   9   6   5   60.48    1.50
  -9  -6  -5   60.69    1.48
  -9  -6  -5   61.37    1.65
   9   6   5   61.72    1.72
   9   6   6    4.00    0.39
  -9  -6  -6    3.52    0.32
  -9  -6  -6    3.61    0.35
  -9  -6  -6    3.80    0.36
   9   6   6    3.60    0.37
   9   6   7    0.90    0.21
  -9  -6  -7    0.97    0.19
  -9  -6  -7    0.98    0.17
  -9  -6  -7    0.79    0.16
   9   6   7    1.09    0.18
   9   6   8   12.69    0.64
  -9  -6  -8   13.41    0.60
   9   7   1    8.41    0.44
  -9  -7  -1    8.15    0.41
  -9  -7  -1    9.20    0.49
  -9  -7  -2   51.27    1.37
  -9  -7  -2   49.13    1.15
   9   7   2   51.08    1.34
  -9  -7  -2   51.29    1.15
  -9  -7  -3   55.68    1.51
  -9  -7  -3   54.23    1.36
   9   7   3   53.73    1.50
  -9  -7  -4   11.09    0.59
   9   7   4   12.14    0.68
   9   7   5    5.61    0.36
  -9  -7  -5    5.54    0.37
  -9  -7  -5    5.87    0.43
   9   7   5    5.61    0.46
   9   7   6    0.66    0.15
  -9  -7  -6    0.76    0.16
  -9  -7  -6    0.50    0.14
   9   7   6    0.79    0.18
   9   7   7   15.30    0.66
  -9  -7  -7   17.05    0.66
   9   7   7   15.83    0.60
  -9  -8  -2    1.33    0.19
   9   8   2    1.24    0.17
  -9  -8  -3    2.30    0.25
  -9  -8  -3    2.03    0.21
   9   8   3    1.85    0.23
  -9  -8  -4   11.59    0.56
  -9  -8  -4   10.85    0.52
   9   8   4   12.15    0.61
  -9  -8  -5   22.61    0.75
   9   8   5   23.93    0.86
  -9  -8  -5   24.06    0.82
   9   8   6   51.20    1.05
   9   8   6   53.09    1.25
  10  -1   4   45.29    1.14
 -10   1  -4   43.13    1.11
 -10   1  -4   45.36    1.13
 -10   1  -4   42.20    1.07
 -10   1  -4   44.18    0.92
  10  -1   5   18.08    0.70
 -10   1  -5   17.51    0.70
 -10   1  -5   18.31    0.70
 -10   1  -5   17.86    0.60
  10  -1   6   73.83    1.57
  10  -1   6   76.12    1.62
 -10   1  -6   72.40    1.55
 -10   1  -6   77.42    1.56
 -10   1  -6   78.08    1.51
  10  -1   7   97.32    1.79
 -10   0  -2  207.47    3.19
 -10   0  -2  204.33    2.89
 -10   0  -3   15.91    0.60
  10   0   3   15.64    0.66
 -10   0  -3   15.60    0.61
 -10   0  -3   15.62    0.65
 -10   0  -4    1.78    0.22
  10   0   4    1.47    0.21
  10   0   4    1.49    0.17
  10   0   4    1.83    0.22
 -10   0  -4    1.24    0.20
 -10   0  -4    1.21    0.20
 -10   0  -5   25.43    0.86
  10   0   5   24.88    0.90
  10   0   5   23.51    0.79
 -10   0  -5   24.67    0.89
 -10   0  -5   22.72    0.76
 -10   0  -5   25.19    0.71
 -10   0  -6   57.96    1.41
  10   0   6   58.72    1.46
  10   0   6   60.15    1.50
 -10   0  -6   56.55    1.18
 -10   0  -6   60.71    1.44
 -10   0  -7   32.12    0.96
  10   0   7   33.68    1.01
  10   0   7   34.07    1.02
 -10   0  -7   31.32    0.86
 -10   0  -7   33.40    0.89
 -10   0  -7   31.28    0.86
  10   0   7   32.86    0.80
  10   0   8    0.85    0.14
 -10   0  -8    0.73    0.14
  10   0   8    1.12    0.15
  10   1   2   67.51    1.44
  10   1   2   63.87    1.16
  10   1   2   67.26    1.44
 -10  -1  -2   64.30    1.46
 -10  -1  -2   68.99    1.61
 -10  -1  -2   68.93    1.48
 -10  -1  -3    6.61    0.44
  10   1   3    7.08    0.45
  10   1   3    6.44    0.39
  10   1   3    6.53    0.44
 -10  -1  -3    6.52    0.41
 -10  -1  -3    6.28    0.43
 -10  -1  -4   62.74    1.57
  10   1   4   61.84    1.54
  10   1   4   61.45    1.53
 -10  -1  -4   61.78    1.51
 -10  -1  -4   60.07    1.46
  10   1   4   57.92    1.36
 -10  -1  -5   65.67    1.65
  10   1   5   64.87    1.62
  10   1   5   65.76    1.65
  10   1   5   65.38    1.62
 -10  -1  -5   67.92    1.64
 -10  -1  -5   61.26    1.38
 -10  -1  -6   53.10    1.45
  10   1   6   50.30    1.38
  10   1   6   50.11    1.43
  10   1   6   51.44    1.39
 -10  -1  -6   51.72    1.20
 -10  -1  -6   51.94    1.36
  10   1   7   33.07    1.04
 -10  -1  -7   33.30    1.09
  10   1   7   32.70    1.06
 -10  -1  -7   31.67    0.94
 -10  -1  -7   31.26    0.93
  10   1   7   30.66    0.88
  10   1   8    7.23    0.43
  10   1   8    6.70    0.41
 -10  -1  -8    6.89    0.44
 -10  -1  -8    7.03    0.41
  10   1   8    7.13    0.40
 -10  -2  -1   50.02    1.23
 -10  -2  -1   48.43    1.17
 -10  -2  -2   11.36    0.58
  10   2   2   10.60    0.47
  10   2   2   11.02    0.56
 -10  -2  -2   10.48    0.43
 -10  -2  -2   10.31    0.53
 -10  -2  -2   11.37    0.60
 -10  -2  -3    1.96    0.27
  10   2   3    2.08    0.24
  10   2   3    1.74    0.20
  10   2   3    2.05    0.27
 -10  -2  -3    1.86    0.23
 -10  -2  -3    2.02    0.25
 -10  -2  -4    3.08    0.35
  10   2   4    2.97    0.30
  10   2   4    3.14    0.31
  10   2   4    3.20    0.35
 -10  -2  -4    2.88    0.31
 -10  -2  -4    3.28    0.31
  10   2   4    3.10    0.31
 -10  -2  -5   48.75    1.45
  10   2   5   49.56    1.34
  10   2   5   49.02    1.38
  10   2   5   47.12    1.41
 -10  -2  -5   48.43    1.37
 -10  -2  -5   45.33    1.08
  10   2   5   48.93    1.21
  10   2   6  122.45    2.40
 -10  -2  -6  127.00    2.61
  10   2   6  122.13    2.52
  10   2   6  124.82    2.54
 -10  -2  -6  128.23    2.25
 -10  -2  -6  127.40    2.45
  10   2   7   42.96    1.20
 -10  -2  -7   45.57    1.36
  10   2   7   42.22    1.28
 -10  -2  -7   43.36    1.15
 -10  -2  -7   44.43    1.16
  10   2   8   14.12    0.60
  10   2   8   15.03    0.66
 -10  -2  -8   14.20    0.69
 -10  -2  -8   15.46    0.62
  10   3   1   24.52    0.78
 -10  -3  -1   24.60    0.79
  10   3   1   24.10    0.78
 -10  -3  -1   25.25    0.81
 -10  -3  -2   23.72    0.87
  10   3   2   23.45    0.85
 -10  -3  -2   22.42    0.67
 -10  -3  -2   23.99    0.86
  10   3   2   23.91    0.86
 -10  -3  -3   33.96    1.14
  10   3   3   35.01    0.91
  10   3   3   33.91    0.88
  10   3   3   36.13    1.16
 -10  -3  -3   35.42    1.02
 -10  -3  -3   34.13    1.04
  10   3   3   35.21    1.12
 -10  -3  -4   45.14    1.37
  10   3   4   41.67    1.10
  10   3   4   41.53    1.14
  10   3   4   42.61    1.34
 -10  -3  -4   41.74    1.23
 -10  -3  -4   41.74    1.10
  10   3   4   41.69    1.23
 -10  -3  -5   40.62    1.31
  10   3   5   36.72    1.07
  10   3   5   39.88    1.21
  10   3   5   40.06    1.31
 -10  -3  -5   40.20    1.22
  10   3   5   39.01    1.13
  10   3   6   53.30    1.33
 -10  -3  -6   56.72    1.59
  10   3   6   55.77    1.52
  10   3   6   55.45    1.54
 -10  -3  -6   54.84    1.30
 -10  -3  -6   55.96    1.44
  10   3   7   26.42    0.84
  10   3   7   27.53    1.01
 -10  -3  -7   28.31    1.06
 -10  -3  -7   28.50    0.90
 -10  -3  -7   28.38    0.89
  10   3   8   14.52    0.66
 -10  -3  -8   14.16    0.70
 -10  -3  -8   14.61    0.61
 -10  -4  -1   63.83    1.22
  10   4   1   63.47    1.35
 -10  -4  -1   60.94    1.27
 -10  -4  -1   65.94    1.38
 -10  -4  -2  127.37    2.34
  10   4   2  128.06    2.33
  10   4   2  123.74    2.33
 -10  -4  -2  121.31    2.18
 -10  -4  -3   60.87    1.53
  10   4   3   57.06    1.47
 -10  -4  -3   56.90    1.31
 -10  -4  -3   57.52    1.34
  10   4   3   57.44    1.48
 -10  -4  -3   55.85    1.33
 -10  -4  -4    2.33    0.30
  10   4   4    2.11    0.22
  10   4   4    2.40    0.29
 -10  -4  -4    2.07    0.25
  10   4   4    2.46    0.30
 -10  -4  -5    1.49    0.25
  10   4   5    1.33    0.21
  10   4   5    1.20    0.22
 -10  -4  -5    1.35    0.22
  10   4   5    1.84    0.24
 -10  -4  -6   33.88    1.14
  10   4   6   32.94    1.08
  10   4   6   31.97    1.09
 -10  -4  -6   32.00    0.92
 -10  -4  -6   34.32    1.05
  10   4   6   33.09    0.94
  10   4   7   21.27    0.85
 -10  -4  -7   24.12    0.92
 -10  -4  -7   22.62    0.78
 -10  -4  -7   22.91    0.76
  10   4   8   41.52    1.15
 -10  -4  -8   40.56    1.17
 -10  -4  -8   41.32    1.05
 -10  -5  -2   78.31    1.50
  10   5   2   76.35    1.64
 -10  -5  -3    5.68    0.39
 -10  -5  -3    5.13    0.36
  10   5   3    5.40    0.37
 -10  -5  -3    5.42    0.35
  10   5   3    5.26    0.41
 -10  -5  -4   20.60    0.79
  10   5   4   19.20    0.59
  10   5   4   19.63    0.76
 -10  -5  -4   20.14    0.75
  10   5   4   19.95    0.81
 -10  -5  -5   16.12    0.70
  10   5   5   15.09    0.61
  10   5   5   16.16    0.69
 -10  -5  -5   16.83    0.70
  10   5   5   15.99    0.70
 -10  -5  -6   58.90    1.44
  10   5   6   55.52    1.39
  10   5   6   59.67    1.40
 -10  -5  -6   55.92    1.21
 -10  -5  -6   59.30    1.39
  10   5   6   56.14    1.32
  10   5   7   79.04    1.72
 -10  -5  -7   79.35    1.68
 -10  -5  -7   80.30    1.57
 -10  -5  -7   79.95    1.51
 -10  -6  -3    3.73    0.30
  10   6   3    3.66    0.31
 -10  -6  -3    3.32    0.24
 -10  -6  -4    5.45    0.32
 -10  -6  -4    5.26    0.35
  10   6   4    5.41    0.40
 -10  -6  -5  114.95    1.96
  10   6   5  111.00    1.86
 -10  -6  -5  115.55    2.10
  10   6   5  117.70    2.19
  10   6   6  115.07    2.01
 -10  -6  -6  120.78    2.07
  10   6   6  117.49    2.06
   0   0   0    0.00    0.00
;
loop_
_space_group_symop_operation_xyz
'x, y, z'
'-x, -y, -z'
loop_
_atom_site_label
_atom_site_type_symbol
_atom_site_fract_x
_atom_site_fract_y
_atom_site_fract_z
_atom_site_U_iso_or_equiv
_atom_site_adp_type
_atom_site_occupancy
_atom_site_site_symmetry_order
_atom_site_calc_flag
_atom_site_refinement_flags_posn
_atom_site_refinement_flags_adp
_atom_site_refinement_flags_occupancy
_atom_site_disorder_assembly
_atom_site_disorder_group
Cd Cd 0.500000 0.500000 1.000000 0.01167(6) Uani 1 2 d S . P . .
S1 S 0.62710(5) 0.21727(4) 0.89421(5) 0.01518(9) Uani 1 1 d . . . . .
S2 S 0.82782(5) 0.48870(4) 0.80199(5) 0.01587(9) Uani 1 1 d . . . . .
P1 P 0.84648(5) 0.27358(4) 0.78453(5) 0.01265(10) Uani 1 1 d . . . . .
O1 O 0.98987(15) 0.17908(13) 0.82879(14) 0.0187(2) Uani 1 1 d . . . . .
O2 O 0.92541(14) 0.21281(13) 0.61007(13) 0.0154(2) Uani 1 1 d . . . . .
N1 N 0.41685(17) 0.56317(15) 0.79881(15) 0.0140(3) Uani 1 1 d . . . . .
N2 N 0.49294(19) 0.93956(16) 0.54745(17) 0.0203(3) Uani 1 1 d . . . . .
C1 C 1.0169(2) 0.2188(2) 0.9563(2) 0.0202(4) Uani 1 1 d . . . . .
H1A H 0.927426 0.198654 1.055805 0.024 Uiso 1 1 calc R U . . .
H1B H 1.012810 0.324990 0.957880 0.024 Uiso 1 1 calc R U . . .
C2 C 1.1894(2) 0.1272(2) 0.9325(2) 0.0236(4) Uani 1 1 d . . . . .
H2A H 1.216210 0.157193 1.011919 0.035 Uiso 1 1 calc R U . . .
H2B H 1.275656 0.141812 0.830011 0.035 Uiso 1 1 calc R U . . .
H2C H 1.188779 0.022857 0.940202 0.035 Uiso 1 1 calc R U . . .
C3 C 1.0940(2) 0.2290(2) 0.4983(2) 0.0199(4) Uani 1 1 d . . . . .
H3A H 1.179689 0.184106 0.535561 0.024 Uiso 1 1 calc R U . . .
H3B H 1.091571 0.334694 0.484423 0.024 Uiso 1 1 calc R U . . .
C4 C 1.1388(2) 0.1523(2) 0.3478(2) 0.0220(4) Uani 1 1 d . . . . .
H4A H 1.255519 0.152879 0.273481 0.033 Uiso 1 1 calc R U . . .
H4B H 1.059711 0.203682 0.306990 0.033 Uiso 1 1 calc R U . . .
H4C H 1.130265 0.050186 0.365003 0.033 Uiso 1 1 calc R U . . .
C5 C 0.4415(2) 0.68340(18) 0.72021(19) 0.0151(3) Uani 1 1 d . . . . .
H5 H 0.500008 0.743068 0.741411 0.018 Uiso 1 1 calc R U . . .
C6 C 0.3846(2) 0.72530(19) 0.60771(19) 0.0174(3) Uani 1 1 d . . . . .
C7 C 0.2985(2) 0.6367(2) 0.5781(2) 0.0206(4) Uani 1 1 d . . . . .
H7 H 0.258755 0.661239 0.502101 0.025 Uiso 1 1 calc R U . . .
C8 C 0.2717(2) 0.5126(2) 0.6608(2) 0.0209(4) Uani 1 1 d . . . . .
H8 H 0.212395 0.451349 0.643116 0.025 Uiso 1 1 calc R U . . .
C9 C 0.3327(2) 0.47946(19) 0.76937(19) 0.0170(3) Uani 1 1 d . . . . .
H9 H 0.314491 0.394049 0.825640 0.020 Uiso 1 1 calc R U . . .
C10 C 0.4139(2) 0.8573(2) 0.5218(2) 0.0203(4) Uani 1 1 d . . . . .
H10A H 0.373770 0.882130 0.446030 0.024 Uiso 1 1 calc R U . . .
loop_
_atom_site_aniso_label
_atom_site_aniso_U_11
_atom_site_aniso_U_22
_atom_site_aniso_U_33
_atom_site_aniso_U_23
_atom_site_aniso_U_13
_atom_site_aniso_U_12
Cd 0.01104(9) 0.01165(9) 0.01135(9) 0.00187(6) -0.00511(7) -0.00143(6)
S1 0.01469(19) 0.01218(19) 0.0170(2) 0.00142(15) -0.00529(16) -0.00430(15)
S2 0.01284(19) 0.0136(2) 0.0184(2) 0.00142(15) -0.00402(16) -0.00468(15)
P1 0.01133(19) 0.0130(2) 0.0133(2) 0.00040(15) -0.00612(16) -0.00140(15)
O1 0.0184(6) 0.0191(6) 0.0201(6) -0.0024(5) -0.0130(5) 0.0019(5)
O2 0.0127(5) 0.0189(6) 0.0137(6) -0.0007(4) -0.0054(5) -0.0031(4)
N1 0.0121(6) 0.0167(7) 0.0126(6) 0.0018(5) -0.0053(5) -0.0031(5)
N2 0.0178(7) 0.0214(8) 0.0159(7) 0.0081(6) -0.0058(6) -0.0005(6)
C1 0.0179(8) 0.0300(10) 0.0147(8) 0.0003(7) -0.0095(7) -0.0053(7)
C2 0.0220(9) 0.0277(10) 0.0257(9) 0.0033(8) -0.0160(8) -0.0040(8)
C3 0.0132(8) 0.0246(9) 0.0178(8) -0.0007(7) -0.0028(7) -0.0055(7)
C4 0.0191(9) 0.0234(9) 0.0186(9) -0.0037(7) -0.0035(7) -0.0055(7)
C5 0.0128(8) 0.0166(8) 0.0141(8) 0.0013(6) -0.0053(6) -0.0020(6)
C6 0.0123(8) 0.0220(9) 0.0134(8) 0.0010(7) -0.0046(7) 0.0010(7)
C7 0.0131(8) 0.0319(10) 0.0153(8) -0.0008(7) -0.0081(7) 0.0004(7)
C8 0.0133(8) 0.0297(10) 0.0201(9) -0.0034(7) -0.0072(7) -0.0055(7)
C9 0.0131(8) 0.0194(8) 0.0167(8) 0.0009(6) -0.0044(7) -0.0058(6)
C10 0.0163(8) 0.0250(9) 0.0137(8) 0.0046(7) -0.0064(7) 0.0028(7)
loop_
_atom_type_symbol
_atom_type_description
_atom_type_scat_dispersion_real
_atom_type_scat_dispersion_imag
_atom_type_scat_source
C C 0.0181 0.0091 'International Tables Vol C Tables 4.2.6.8 and 6.1.1.4'
H H 0.0000 0.0000 'International Tables Vol C Tables 4.2.6.8 and 6.1.1.4'
N N 0.0311 0.0180 'International Tables Vol C Tables 4.2.6.8 and 6.1.1.4'
O O 0.0492 0.0322 'International Tables Vol C Tables 4.2.6.8 and 6.1.1.4'
P P 0.2955 0.4335 'International Tables Vol C Tables 4.2.6.8 and 6.1.1.4'
S S 0.3331 0.5567 'International Tables Vol C Tables 4.2.6.8 and 6.1.1.4'
Cd Cd 0.1185 4.6533 'International Tables Vol C Tables 4.2.6.8 and 6.1.1.4'
loop_
_geom_angle_atom_site_label_1
_geom_angle_atom_site_label_2
_geom_angle_atom_site_label_3
_geom_angle
_geom_angle_site_symmetry_1
_geom_angle_site_symmetry_3
N1 Cd N1 180.0 2_667 .
N1 Cd S1 91.31(3) 2_667 2_667
N1 Cd S1 88.69(3) . 2_667
N1 Cd S1 88.69(3) 2_667 .
N1 Cd S1 91.31(3) . .
S1 Cd S1 180.0 2_667 .
N1 Cd S2 90.91(3) 2_667 2_667
N1 Cd S2 89.09(3) . 2_667
S1 Cd S2 77.235(12) 2_667 2_667
S1 Cd S2 102.765(12) . 2_667
N1 Cd S2 89.09(3) 2_667 .
N1 Cd S2 90.91(3) . .
S1 Cd S2 102.765(12) 2_667 .
S1 Cd S2 77.236(12) . .
S2 Cd S2 180.0 2_667 .
P1 S1 Cd 84.203(17) . .
P1 S2 Cd 83.321(17) . .
O2 P1 O1 99.35(6) . .
O2 P1 S1 105.84(5) . .
O1 P1 S1 112.78(5) . .
O2 P1 S2 112.23(5) . .
O1 P1 S2 110.74(5) . .
S1 P1 S2 114.77(2) . .
C1 O1 P1 124.25(11) . .
C3 O2 P1 119.90(10) . .
C5 N1 C9 118.52(14) . .
C5 N1 Cd 122.48(11) . .
C9 N1 Cd 118.89(11) . .
C10 N2 N2 111.61(18) . 2_676
O1 C1 C2 107.25(14) . .
O1 C1 H1A 110.3 . .
C2 C1 H1A 110.3 . .
O1 C1 H1B 110.3 . .
C2 C1 H1B 110.3 . .
H1A C1 H1B 108.5 . .
C1 C2 H2A 109.5 . .
C1 C2 H2B 109.5 . .
H2A C2 H2B 109.5 . .
C1 C2 H2C 109.5 . .
H2A C2 H2C 109.5 . .
H2B C2 H2C 109.5 . .
O2 C3 C4 107.52(13) . .
O2 C3 H3A 110.2 . .
C4 C3 H3A 110.2 . .
O2 C3 H3B 110.2 . .
C4 C3 H3B 110.2 . .
H3A C3 H3B 108.5 . .
C3 C4 H4A 109.5 . .
C3 C4 H4B 109.5 . .
H4A C4 H4B 109.5 . .
C3 C4 H4C 109.5 . .
H4A C4 H4C 109.5 . .
H4B C4 H4C 109.5 . .
N1 C5 C6 122.69(15) . .
N1 C5 H5 118.7 . .
C6 C5 H5 118.7 . .
C7 C6 C5 117.97(16) . .
C7 C6 C10 120.14(15) . .
C5 C6 C10 121.90(16) . .
C8 C7 C6 119.29(16) . .
C8 C7 H7 120.4 . .
C6 C7 H7 120.4 . .
C9 C8 C7 118.80(16) . .
C9 C8 H8 120.6 . .
C7 C8 H8 120.6 . .
N1 C9 C8 122.73(16) . .
N1 C9 H9 118.6 . .
C8 C9 H9 118.6 . .
N2 C10 C6 120.86(15) . .
N2 C10 H10A 119.6 . .
C6 C10 H10A 119.6 . .
loop_
_geom_bond_atom_site_label_1
_geom_bond_atom_site_label_2
_geom_bond_distance
_geom_bond_site_symmetry_2
Cd N1 2.3830(13) 2_667
Cd N1 2.3831(13) .
Cd S1 2.6741(4) 2_667
Cd S1 2.6742(4) .
Cd S2 2.7003(4) 2_667
Cd S2 2.7004(4) .
S1 P1 1.9862(6) .
S2 P1 1.9963(6) .
P1 O2 1.5885(12) .
P1 O1 1.5914(12) .
O1 C1 1.450(2) .
O2 C3 1.466(2) .
N1 C5 1.334(2) .
N1 C9 1.346(2) .
N2 C10 1.281(2) .
N2 N2 1.412(3) 2_676
C1 C2 1.503(2) .
C1 H1A 0.9900 .
C1 H1B 0.9900 .
C2 H2A 0.9800 .
C2 H2B 0.9800 .
C2 H2C 0.9800 .
C3 C4 1.504(2) .
C3 H3A 0.9900 .
C3 H3B 0.9900 .
C4 H4A 0.9800 .
C4 H4B 0.9800 .
C4 H4C 0.9800 .
C5 C6 1.400(2) .
C5 H5 0.9500 .
C6 C7 1.395(3) .
C6 C10 1.465(2) .
C7 C8 1.385(3) .
C7 H7 0.9500 .
C8 C9 1.381(2) .
C8 H8 0.9500 .
C9 H9 0.9500 .
C10 H10A 0.9500 .
loop_
_geom_torsion_atom_site_label_1
_geom_torsion_atom_site_label_2
_geom_torsion_atom_site_label_3
_geom_torsion_atom_site_label_4
_geom_torsion
_geom_torsion_site_symmetry_1
_geom_torsion_site_symmetry_2
_geom_torsion_site_symmetry_3
_geom_torsion_site_symmetry_4
O2 P1 O1 C1 159.16(13) . . . .
S1 P1 O1 C1 -89.18(13) . . . .
S2 P1 O1 C1 40.97(14) . . . .
O1 P1 O2 C3 -59.64(13) . . . .
S1 P1 O2 C3 -176.68(11) . . . .
S2 P1 O2 C3 57.42(12) . . . .
P1 O1 C1 C2 -164.70(12) . . . .
P1 O2 C3 C4 176.08(11) . . . .
C9 N1 C5 C6 -0.5(2) . . . .
Cd N1 C5 C6 -176.43(12) . . . .
N1 C5 C6 C7 0.1(2) . . . .
N1 C5 C6 C10 -179.57(15) . . . .
C5 C6 C7 C8 0.4(2) . . . .
C10 C6 C7 C8 -179.85(16) . . . .
C6 C7 C8 C9 -0.6(3) . . . .
C5 N1 C9 C8 0.3(2) . . . .
Cd N1 C9 C8 176.40(13) . . . .
C7 C8 C9 N1 0.2(3) . . . .
N2 N2 C10 C6 -179.93(16) 2_676 . . .
C7 C6 C10 N2 -179.88(16) . . . .
C5 C6 C10 N2 -0.2(3) . . . .
