#------------------------------------------------------------------------------
#$Date: 2022-09-22 12:39:42 +0300 (Thu, 22 Sep 2022) $
#$Revision: 278082 $
#$URL: file:///home/coder/svn-repositories/cod/cif/8/10/58/8105839.cif $
#------------------------------------------------------------------------------
#
# This file is available in the Crystallography Open Database (COD),
# http://www.crystallography.net/
#
# All data on this site have been placed in the public domain by the
# contributors.
#
data_8105839
loop_
_publ_author_name
'Tan, Sang Loon'
'Tiekink, Edward R.T.'
_publ_section_title
;
 Crystal structure of hemikis(cyclohexane-1,4-diammonium)
 (pyridine-2-carboxylate), [C6H16N2]0.5[C6H4NO2]
;
_journal_issue                   4
_journal_name_full
'Zeitschrift f\"ur Kristallographie - New Crystal Structures'
_journal_page_first              749
_journal_page_last               751
_journal_paper_doi               10.1515/ncrs-2019-0091
_journal_volume                  234
_journal_year                    2019
_chemical_formula_moiety         'C6 H4 N O2, 0.5(C6 H16 N2)'
_chemical_formula_sum            'C9 H12 N2 O2'
_chemical_formula_weight         180.21
_space_group_crystal_system      triclinic
_space_group_IT_number           2
_space_group_name_Hall           '-P 1'
_space_group_name_H-M_alt        'P -1'
_atom_sites_solution_hydrogens   mixed
_audit_creation_method           SHELXL-2018/3
_cell_angle_alpha                70.483(3)
_cell_angle_beta                 80.902(3)
_cell_angle_gamma                66.404(3)
_cell_formula_units_Z            2
_cell_length_a                   6.7956(2)
_cell_length_b                   7.2840(3)
_cell_length_c                   10.2615(4)
_cell_measurement_reflns_used    6846
_cell_measurement_temperature    100(2)
_cell_measurement_theta_max      75.8740
_cell_measurement_theta_min      4.5340
_cell_volume                     438.55(3)
_computing_cell_refinement       'CrysAlisPro [1]'
_computing_data_collection       'CrysAlisPro [1]'
_computing_data_reduction        'CrysAlisPro [1]'
_computing_molecular_graphics    'ORTEP-3 for Windows [4]'
_computing_publication_material  'SHELXL2018/3 [3]'
_computing_structure_refinement  'SHELXL2018/3 [3]'
_computing_structure_solution    'SHELXS-97 [2]'
_diffrn_ambient_temperature      100(2)
_diffrn_detector_area_resol_mean 5.2558
_diffrn_measured_fraction_theta_full 0.999
_diffrn_measured_fraction_theta_max 0.992
_diffrn_measurement_device_type  'XtaLAB Synergy, Dualflex, AtlasS2'
_diffrn_measurement_method       '\w scans'
_diffrn_radiation_type           CuK\a
_diffrn_radiation_wavelength     1.54178
_diffrn_reflns_av_R_equivalents  0.0308
_diffrn_reflns_av_unetI/netI     0.0182
_diffrn_reflns_Laue_measured_fraction_full 0.999
_diffrn_reflns_Laue_measured_fraction_max 0.992
_diffrn_reflns_limit_h_max       7
_diffrn_reflns_limit_h_min       -8
_diffrn_reflns_limit_k_max       9
_diffrn_reflns_limit_k_min       -9
_diffrn_reflns_limit_l_max       12
_diffrn_reflns_limit_l_min       -12
_diffrn_reflns_number            11063
_diffrn_reflns_point_group_measured_fraction_full 0.999
_diffrn_reflns_point_group_measured_fraction_max 0.992
_diffrn_reflns_theta_full        67.684
_diffrn_reflns_theta_max         76.375
_diffrn_reflns_theta_min         4.574
_diffrn_source                   'micro-focus sealed X-ray tube'
_exptl_absorpt_coefficient_mu    0.808
_exptl_absorpt_correction_T_max  1.000
_exptl_absorpt_correction_T_min  0.668
_exptl_absorpt_correction_type   gaussian
_exptl_absorpt_process_details   'CrysAlisPro [1]'
_exptl_crystal_colour            colourless
_exptl_crystal_density_diffrn    1.365
_exptl_crystal_description       prism
_exptl_crystal_F_000             192
_exptl_crystal_size_max          0.170
_exptl_crystal_size_mid          0.090
_exptl_crystal_size_min          0.090
_refine_diff_density_max         0.249
_refine_diff_density_min         -0.263
_refine_diff_density_rms         0.052
_refine_ls_extinction_coef       .
_refine_ls_extinction_method     none
_refine_ls_goodness_of_fit_ref   1.105
_refine_ls_hydrogen_treatment    mixed
_refine_ls_matrix_type           full
_refine_ls_number_parameters     127
_refine_ls_number_reflns         1832
_refine_ls_number_restraints     3
_refine_ls_restrained_S_all      1.105
_refine_ls_R_factor_all          0.0383
_refine_ls_R_factor_gt           0.0359
_refine_ls_shift/su_max          0.000
_refine_ls_shift/su_mean         0.000
_refine_ls_structure_factor_coef Fsqd
_refine_ls_weighting_details
'w=1/[\s^2^(Fo^2^)+(0.0385P)^2^+0.2635P] where P=(Fo^2^+2Fc^2^)/3'
_refine_ls_weighting_scheme      calc
_refine_ls_wR_factor_gt          0.0972
_refine_ls_wR_factor_ref         0.0988
_reflns_Friedel_coverage         0.000
_reflns_Friedel_fraction_full    .
_reflns_Friedel_fraction_max     .
_reflns_number_gt                1702
_reflns_number_total             1832
_reflns_threshold_expression     'I > 2\s(I)'
_cod_data_source_file            suppl_ncrs-2019-0091_suppl.cif
_cod_data_source_block           shelx
_cod_database_code               8105839
_shelx_shelxl_version_number     2018/3
_shelx_space_group_comment
;
The symmetry employed for this shelxl refinement is uniquely defined
by the following loop, which should always be used as a source of
symmetry information in preference to the above space-group names.
They are only intended as comments.
;
_shelx_estimated_absorpt_t_min   0.875
_shelx_estimated_absorpt_t_max   0.931
_shelx_res_file
;
TITL 771
    shelx.res
    created by SHELXL-2018/3 at 13:39:10 on 26-Jan-2019
CELL 1.54184 6.7956 7.284 10.2615 70.483 80.902 66.404
ZERR 2 0.0002 0.0003 0.0004 0.003 0.003 0.003
LATT 1
SFAC C H N O
UNIT 18 24 4 4
L.S. 18
FMAP  2
PLAN  -1
ACTA
BOND $H
CONF
OMIT 1 1 4
OMIT 2 2 5
TEMP  -173
DFIX  0.88 0.01 N2 H1n N2 H2n N2 H3n
SIZE 0.09 0.09 0.17
WGHT    0.038500    0.263500
FVAR       1.33014
O1    4    0.350605    0.519185    0.848038    11.00000    0.01692    0.02096 =
         0.01432   -0.00249   -0.00125   -0.00689
O2    4    0.055422    0.650419    0.723219    11.00000    0.01544    0.02661 =
         0.02009   -0.00135   -0.00059   -0.01057

N2    3    0.202819    0.553116    1.109596    11.00000    0.01358    0.01542 =
         0.01459   -0.00161   -0.00153   -0.00594
H1N   2    0.318465    0.502179    1.160406    11.00000   -1.20000
H2N   2    0.115245    0.486880    1.154733    11.00000   -1.20000
H3N   2    0.244758    0.529503    1.028134    11.00000   -1.20000
N1    3    0.583316    0.639838    0.623982    11.00000    0.01504    0.01810 =
         0.01820   -0.00345   -0.00093   -0.00741
C1    1    0.249522    0.611620    0.737082    11.00000    0.01546    0.01395 =
         0.01651   -0.00405   -0.00004   -0.00600
C2    1    0.374814    0.687283    0.607681    11.00000    0.01581    0.01375 =
         0.01594   -0.00422   -0.00003   -0.00703
C3    1    0.274470    0.803493    0.481914    11.00000    0.01656    0.02024 =
         0.01788   -0.00390   -0.00220   -0.00768
AFIX  43
H3    2    0.126710    0.833058    0.473916    11.00000   -1.20000
AFIX   0
C4    1    0.393778    0.875545    0.368296    11.00000    0.02645    0.02261 =
         0.01483   -0.00247   -0.00230   -0.01119
AFIX  43
H4    2    0.328803    0.957439    0.281505    11.00000   -1.20000
AFIX   0
C5    1    0.609385    0.825603    0.384071    11.00000    0.02421    0.02221 =
         0.01730   -0.00567    0.00486   -0.01324
AFIX  43
H5    2    0.695873    0.870981    0.307963    11.00000   -1.20000
AFIX   0
C6    1    0.696874    0.708017    0.513122    11.00000    0.01607    0.02180 =
         0.02275   -0.00598    0.00150   -0.00923
AFIX  43
H6    2    0.845021    0.674204    0.523258    11.00000   -1.20000
AFIX   0
C7    1    0.236036    0.899808    1.009804    11.00000    0.01217    0.01618 =
         0.01754   -0.00243   -0.00133   -0.00620
AFIX  23
H7A   2    0.280609    0.870294    0.919950    11.00000   -1.20000
H7B   2    0.366892    0.849663    1.062801    11.00000   -1.20000
AFIX   0
C8    1    0.090180    0.782917    1.089926    11.00000    0.01329    0.01453 =
         0.01477   -0.00335   -0.00067   -0.00549
AFIX  13
H8    2    0.054931    0.806113    1.182942    11.00000   -1.20000
AFIX   0
C9    1   -0.118903    0.863627    1.015136    11.00000    0.01322    0.01621 =
         0.01804   -0.00312   -0.00213   -0.00683
AFIX  23
H9A   2   -0.212803    0.789777    1.071309    11.00000   -1.20000
H9B   2   -0.087061    0.833039    0.925388    11.00000   -1.20000
AFIX   0
HKLF 4




REM  771
REM wR2 = 0.0988, GooF = S = 1.105, Restrained GooF = 1.105 for all data
REM R1 = 0.0359 for 1702 Fo > 4sig(Fo) and 0.0383 for all 1832 data
REM 127 parameters refined using 3 restraints

END

WGHT      0.0386      0.2649

REM Highest difference peak  0.249,  deepest hole -0.263,  1-sigma level  0.052
Q1    1  -0.0197  0.8234  1.0566  11.00000  0.05    0.25
;
_shelx_res_checksum              83346
_shelx_hkl_file
;
   0   0   1   13.89    0.69
   0   0  -1   12.63    0.71
   0   0   2  889.19   22.53
   0   0  -2  962.51   22.52
   0   0  -2  944.07   22.63
   0   0   2 1002.65   21.55
   0   0   2  867.47   22.33
   0   0  -3  204.51    6.16
   0   0   3  194.19    5.96
   0   0   3  201.94    6.25
   0   0  -3  196.16    6.24
   0   0   4  127.33    4.91
   0   0   4  119.18    4.95
   0   0  -4  120.29    4.93
   0   0  -4  126.24    4.84
   0   0   4  121.16    4.76
   0   0   4  128.89    5.08
   0   0   4  121.86    4.97
   0   0   4  118.73    4.61
   0   0   5   30.21    2.35
   0   0   5   30.12    2.43
   0   0  -5   28.51    2.45
   0   0  -5   26.93    2.28
   0   0   5   25.55    2.36
   0   0   5   32.25    2.44
   0   0   5   29.76    2.56
   0   0   5   26.55    2.40
   0   0  -6   16.45    2.10
   0   0   6   15.69    2.01
   0   0   6   14.55    1.85
   0   0   6   18.78    2.21
   0   0   6   13.97    1.80
   0   0  -6   17.30    2.06
   0   0   6   16.21    2.17
   0   0   6   16.01    2.12
   0   0   6   14.36    1.87
   0   0  -7   17.00    2.46
   0   0   7   14.95    2.25
   0   0  -7   12.79    1.98
   0   0   7   16.58    2.33
   0   0   7   18.11    2.38
   0   0   7   16.36    2.25
   0   0   7   12.75    1.93
   0   0   7   17.25    2.47
   0   0  -7   14.31    2.17
   0   0   8 1209.37   34.05
   0   0  -8 1208.86   33.60
   0   0   8 1252.30   34.70
   0   0  -8 1219.71   32.82
   0   0  -8 1220.75   34.01
   0   0   8 1235.96   33.52
   0   0   8 1269.36   34.39
   0   0   8 1189.18   32.74
   0   0   8 1173.17   32.83
   0   0   8 1271.02   33.70
   0   0   9  319.21   12.32
   0   0   9  317.34   12.90
   0   0   9  298.42   11.61
   0   0  -9  309.81   12.51
   0   0  -9  292.75   12.48
   0   0   9  323.95   13.09
   0   0   9  311.18   13.11
   0   0   9  296.79   11.89
   0   0  10  101.84    5.47
   0   0  10  107.20    6.09
   0   0  10  102.85    5.69
   0   0  10  106.19    6.50
   0   0  10  104.52    6.53
   0   0 -10  103.14    6.38
   0   0  11  161.98    7.32
   0   0  11  165.19    6.96
   0   0 -11  168.16    7.37
   0   0  11  187.57    7.96
   0   0  12   -0.01    0.40
   0   0  12    0.58    0.54
   0   1 -11    3.24    0.92
   0  -1  11    1.44    0.62
   0  -1  11    3.23    0.86
   0  -1  10   -0.37    0.81
   0  -1  10    0.31    0.79
   0  -1  10   -1.41    0.95
   0   1 -10    0.50    1.00
   0  -1   9   80.04    5.18
   0  -1   9   72.39    5.45
   0  -1   9   75.85    5.18
   0   1  -9   73.61    4.81
   0  -1   9   84.58    6.03
   0  -1   9   78.76    5.54
   0  -1   8   58.38    4.88
   0  -1   8   56.96    4.52
   0   1  -8   54.50    4.86
   0  -1   8   57.11    4.86
   0  -1   8   54.46    4.60
   0  -1   8   54.85    4.80
   0   1  -8   49.55    4.23
   0   1  -8   55.77    4.43
   0  -1   7  230.45   10.34
   0   1  -7  251.33   10.06
   0  -1   7  249.52   10.59
   0  -1   7  255.58   10.76
   0  -1   7  240.26   10.16
   0   1  -7  235.88   10.16
   0  -1   7  242.87   10.30
   0   1  -7  232.10   10.63
   0  -1   7  275.07   10.83
   0  -1   6    1.57    0.91
   0   1  -6    0.24    0.77
   0  -1   6    0.06    0.86
   0  -1   6    0.86    0.84
   0   1  -6    0.47    0.77
   0  -1   6    0.83    0.81
   0  -1   6   -1.43    0.87
   0  -1   6    2.12    0.86
   0   1  -6    0.45    0.66
   0  -1   6    1.02    0.90
   0  -1   6   -0.15    0.80
   0  -1   6    1.14    1.02
   0  -1   5  355.52   10.80
   0   1  -5  380.15   11.49
   0  -1   5  368.77   12.01
   0  -1   5  345.21   11.86
   0  -1   5  353.82   11.75
   0  -1   5  363.15   11.85
   0   1  -4  176.21    6.81
   0  -1   4  175.08    5.89
   0  -1   4  166.44    6.59
   0  -1   4  153.67    6.47
   0  -1   4  179.77    6.66
   0  -1   4  167.62    6.47
   0  -1   3   16.44    1.67
   0  -1   3   12.02    1.51
   0  -1   3   12.39    1.67
   0  -1   3   12.40    1.63
   0  -1   3   20.42    1.56
   0   1  -3   19.86    1.95
   0  -1   2  239.19    6.46
   0  -1   2  232.12    6.94
   0  -1   2  245.34    7.00
   0  -1   1  155.58    4.60
   0   1  -1  153.52    4.33
   0   1   0  926.91   21.19
   0  -1   0  903.41   20.48
   0  -1   0  878.16   20.67
   0   1   1  133.95    3.91
   0  -1  -1  144.01    3.87
   0   1   2 4212.90   95.03
   0   1   2 4128.41   94.75
   0  -1  -2 4328.45   94.50
   0   1   3 3800.63   89.75
   0   1   3 3823.00   90.00
   0   1   3 4053.77   89.46
   0   1   4  856.66   19.62
   0  -1  -4  818.18   18.83
   0  -1  -4  843.36   20.98
   0  -1  -4  807.37   20.39
   0   1   4  827.54   18.84
   0   1   4  812.49   20.63
   0   1   4  794.83   20.65
   0   1   4  787.05   20.62
   0   1   5  233.67    7.72
   0   1   5  238.36    6.41
   0  -1  -5  236.79    8.26
   0   1   5  217.31    7.83
   0   1   5  225.16    7.90
   0   1   5  235.41    8.03
   0  -1  -5  230.76    7.81
   0   1   6  266.51    9.16
   0  -1  -6  282.81    9.89
   0   1   6  265.63    9.74
   0   1   6  254.33    9.98
   0  -1  -6  263.42    9.29
   0   1   6  258.66    9.29
   0   1   6  254.83    9.29
   0   1   6  269.85    9.55
   0  -1  -7   19.53    2.30
   0   1   7   19.98    2.35
   0   1   7   18.85    2.31
   0   1   7   20.36    2.71
   0   1   7   19.69    2.21
   0   1   7   24.07    2.61
   0  -1  -7   19.62    2.51
   0   1   7   22.77    2.64
   0   1   7   21.38    2.49
   0   1   7   23.28    2.70
   0   1   8  262.39   10.10
   0   1   8  259.75   10.68
   0   1   8  273.28   11.17
   0   1   8  264.73   11.20
   0   1   8  289.44   10.72
   0   1   8  260.91   10.91
   0  -1  -8  273.88   11.33
   0  -1  -8  262.46   10.62
   0   1   8  266.88   11.55
   0   1   8  259.68   10.61
   0  -1  -8  268.87   11.36
   0   1   9   77.06    5.63
   0  -1  -9   72.10    5.56
   0   1   9   76.93    5.36
   0   1   9   80.82    5.99
   0   1   9   75.33    5.37
   0   1   9   71.80    5.51
   0  -1  -9   78.10    5.72
   0   1   9   74.65    5.04
   0   1  10  140.86    7.65
   0   1  10  132.99    7.68
   0  -1 -10  127.50    7.34
   0   1  10  131.01    6.67
   0   1  10  128.20    6.84
   0   1  11   38.56    3.36
   0   1  11   40.73    3.67
   0  -1 -11   39.00    3.42
   0   1  11   40.57    3.55
   0   1  12   15.49    1.67
   0  -1 -12   17.48    1.69
   0   1  12   16.57    1.77
   0  -2  10   33.80    2.76
   0   2 -10   34.92    2.90
   0  -2  10   36.12    2.72
   0  -2  10   41.74    3.20
   0  -2   9   46.11    4.08
   0  -2   9   46.74    3.82
   0  -2   9   47.67    4.08
   0   2  -9   45.76    3.58
   0  -2   9   50.64    3.61
   0   2  -8  201.03    9.26
   0   2  -8  193.08   10.03
   0  -2   8  202.75    9.84
   0  -2   8  197.71    8.92
   0  -2   8  200.27    9.28
   0   2  -7  405.73   15.67
   0  -2   7  476.37   16.36
   0   2  -7  455.61   15.19
   0  -2   7  455.19   14.57
   0  -2   7  493.21   16.15
   0  -2   7  459.72   14.84
   0  -2   7  468.06   16.77
   0  -2   7  509.31   16.57
   0  -2   7  444.57   16.09
   0   2  -7  428.81   16.59
   0   2  -6    9.03    1.80
   0  -2   6   11.72    2.02
   0  -2   6    9.61    1.93
   0   2  -6   12.90    1.89
   0  -2   6   10.84    1.93
   0  -2   6    9.37    1.65
   0  -2   6   11.90    2.23
   0  -2   6    9.28    1.85
   0   2  -6    9.76    2.01
   0  -2   5    3.56    1.28
   0  -2   5    1.64    0.88
   0   2  -5    4.34    1.40
   0  -2   5    2.59    1.04
   0   2  -5    4.99    1.19
   0   2  -5    1.72    0.98
   0  -2   5    2.52    0.98
   0  -2   5    3.55    1.39
   0  -2   5    2.88    1.07
   0  -2   5    3.93    1.27
   0  -2   4  234.59    8.42
   0  -2   4  221.71    8.74
   0  -2   4  221.97    8.78
   0  -2   4  212.92    8.20
   0   2  -4  240.79    9.12
   0   2  -3  237.20    6.91
   0  -2   3  232.10    7.91
   0   2  -3  246.27    8.70
   0  -2   3  243.85    8.03
   0  -2   3  246.64    7.30
   0  -2   3  235.90    8.45
   0  -2   2  348.65    9.76
   0  -2   2  331.73   10.31
   0   2  -2  346.70    9.13
   0   2  -2  341.00   10.49
   0  -2   2  345.76   10.41
   0  -2   2  364.06    9.88
   0  -2   1  278.69    7.43
   0   2  -1  268.78    7.49
   0   2  -1  267.53    8.18
   0  -2   1  258.60    7.22
   0  -2   1  249.24    7.99
   0   2  -1  270.22    8.10
   0   2   0  403.71   10.42
   0   2   0  398.24   10.43
   0  -2   0  392.13    9.76
   0   2   0  382.61   10.70
   0  -2   0  375.00   10.61
   0   2   1 9978.50  222.18
   0  -2  -1 9999.00  221.92
   0  -2  -1 9888.36  222.01
   0  -2  -2 4957.65  111.95
   0   2   2 5267.49  112.16
   0   2   2 5218.32  110.34
   0  -2  -2 4878.06  111.82
   0   2   3    0.29    0.54
   0   2   3    1.09    0.39
   0   2   3    0.96    0.59
   0  -2  -3    0.82    0.62
   0   2   3    0.82    0.59
   0  -2  -3    0.39    0.42
   0   2   4   65.14    2.96
   0  -2  -4   64.76    3.54
   0  -2  -4   68.52    3.32
   0   2   4   71.03    3.43
   0   2   4   70.62    3.49
   0   2   4   71.52    3.26
   0   2   5  131.76    5.66
   0   2   5  146.97    5.24
   0   2   5  138.14    5.74
   0   2   5  137.96    4.57
   0  -2  -5  139.91    5.56
   0  -2  -5  139.72    5.07
   0  -2  -5  147.79    4.85
   0   2   5  138.63    5.10
   0   2   5  137.65    5.35
   0  -2  -5  133.36    6.04
   0  -2  -6  516.78   14.49
   0  -2  -6  520.52   16.06
   0   2   6  494.58   16.17
   0   2   6  512.60   15.03
   0   2   6  522.50   15.52
   0   2   6  535.01   13.99
   0  -2  -6  537.36   15.17
   0   2   6  500.08   14.44
   0   2   6  507.39   15.40
   0   2   7  174.71    8.59
   0   2   7  186.77    8.47
   0  -2  -7  183.63    8.55
   0   2   7  198.78    7.44
   0  -2  -7  191.13    8.63
   0   2   7  183.42    8.02
   0   2   7  198.85    8.06
   0   2   7  191.16    8.47
   0  -2  -7  196.07    7.42
   0  -2  -7  184.98    7.65
   0   2   7  167.58    7.81
   0   2   8  148.16    7.70
   0  -2  -8  143.54    7.74
   0  -2  -8  148.49    6.97
   0   2   8  135.67    7.25
   0   2   8  146.76    7.44
   0   2   8  147.88    6.61
   0  -2  -8  145.77    7.89
   0   2   8  140.64    7.53
   0   2   8  149.54    7.35
   0   2   8  148.49    8.11
   0   2   9  702.75   22.00
   0  -2  -9  680.39   22.40
   0   2   9  707.84   22.99
   0  -2  -9  732.03   23.00
   0   2   9  695.43   21.86
   0   2   9  686.90   21.76
   0   2   9  749.61   22.71
   0   2   9  723.86   22.23
   0  -2 -10  806.63   24.49
   0   2  10  770.18   24.81
   0   2  10  844.16   24.79
   0   2  10  769.87   23.61
   0   2  10  820.68   23.86
   0  -2 -10  812.97   25.03
   0   2  11   75.92    4.92
   0   2  11   83.03    5.28
   0  -2 -11   74.44    4.90
   0   2  11   73.39    4.64
   0   2  11   74.17    4.42
   0   2  12    2.12    0.68
   0  -2 -12    4.49    1.04
   0   2  12    2.63    0.83
   0  -2 -12    3.42    0.84
   0  -3   9  101.47    5.11
   0   3  -9   93.49    4.52
   0  -3   9   97.05    4.60
   0  -3   9  111.85    5.53
   0  -3   8   -0.44    0.64
   0   3  -8    0.49    0.96
   0  -3   8    1.65    0.95
   0  -3   8    0.72    0.86
   0  -3   7    5.36    1.26
   0   3  -7    6.79    1.99
   0  -3   7    5.69    1.54
   0  -3   7    5.82    1.64
   0  -3   7    6.44    1.81
   0  -3   7    7.23    1.78
   0   3  -7    3.32    1.40
   0  -3   7    6.54    1.45
   0   3  -7    7.03    1.93
   0  -3   6  268.78   11.10
   0  -3   6  267.76   11.27
   0   3  -6  251.00   11.36
   0   3  -6  279.11   12.12
   0  -3   6  265.38   11.60
   0  -3   6  259.91   10.46
   0  -3   6  266.17   10.99
   0   3  -6  270.22   11.99
   0  -3   5   -0.09    0.88
   0  -3   5   -0.08    0.73
   0   3  -5    0.89    0.89
   0   3  -5    0.83    1.00
   0  -3   5    1.30    0.76
   0   3  -5    0.73    0.70
   0  -3   5    0.46    0.84
   0   3  -5    1.49    1.34
   0  -3   5    0.48    0.65
   0  -3   5    0.23    0.98
   0  -3   4  139.37    6.91
   0   3  -4  147.12    7.42
   0  -3   4  129.20    6.73
   0   3  -4  138.73    7.23
   0  -3   4  144.93    6.49
   0  -3   4  123.68    6.81
   0  -3   4  141.89    6.46
   0  -3   3    3.33    1.10
   0  -3   3    2.73    0.86
   0   3  -3    3.97    1.21
   0  -3   3    2.49    0.96
   0  -3   3    3.21    1.03
   0  -3   3    1.53    0.71
   0   3  -3    2.31    0.97
   0   3  -3    3.51    0.80
   0  -3   3    3.87    1.01
   0  -3   3    1.63    0.84
   0  -3   2  357.73   10.36
   0  -3   2  364.05   10.61
   0   3  -2  364.18   10.31
   0   3  -2  355.78   11.74
   0  -3   2  352.57   11.14
   0   3  -2  364.22   11.93
   0  -3   2  364.08   10.86
   0  -3   2  343.60   11.67
   0  -3   2  349.25   11.53
   0  -3   1  494.31   14.05
   0  -3   1  507.00   14.72
   0  -3   1  493.25   14.28
   0   3  -1  484.95   14.29
   0   3  -1  527.50   14.94
   0   3  -1  508.28   13.79
   0  -3   1  507.90   13.25
   0  -3   0  450.40   13.28
   0   3   0  457.99   12.90
   0  -3   0  444.41   12.95
   0   3   0  453.77   12.74
   0   3   0  447.79   13.37
   0  -3   0  476.24   11.80
   0   3   1 1841.19   46.54
   0   3   1 1962.72   46.07
   0   3   1 2049.39   46.47
   0   3   1 2003.63   45.46
   0  -3  -1 1850.86   46.35
   0  -3  -1 1972.04   44.72
   0  -3  -1 1949.42   46.36
   0   3   2  761.00   20.08
   0   3   2  771.80   19.83
   0  -3  -2  771.17   20.02
   0  -3  -2  758.96   20.01
   0  -3  -2  758.37   20.00
   0   3   2  783.49   20.26
   0  -3  -3  667.34   17.85
   0   3   3  692.77   18.09
   0  -3  -3  685.84   17.95
   0   3   3  694.83   18.20
   0  -3  -3  615.41   17.88
   0   3   3  659.31   17.06
   0   3   3  666.10   17.82
   0   3   4  347.39   10.61
   0  -3  -4  334.32   10.27
   0  -3  -4  333.69   10.41
   0   3   4  320.27   10.40
   0  -3  -4  302.26   10.58
   0   3   4  334.35    8.71
   0   3   4  321.88   10.05
   0   3   4  354.73   10.91
   0  -3  -5   44.47    3.49
   0  -3  -5   59.24    3.57
   0   3   5   60.26    2.87
   0  -3  -5   54.33    3.20
   0   3   5   57.49    3.68
   0   3   5   58.60    3.52
   0  -3  -5   59.73    3.45
   0   3   5   53.42    3.41
   0   3   6   98.00    5.46
   0  -3  -6  116.74    5.52
   0   3   6   95.04    4.48
   0   3   6   97.54    4.24
   0  -3  -6   84.43    5.31
   0  -3  -6   97.11    5.74
   0  -3  -6  111.90    4.77
   0   3   6  107.20    5.90
   0   3   6   95.56    5.21
   0   3   6   99.78    4.88
   0   3   6   99.68    5.38
   0   3   7   18.90    2.55
   0   3   7   18.96    2.46
   0   3   7   21.63    2.11
   0  -3  -7   17.53    2.52
   0  -3  -7   23.21    2.81
   0   3   7   19.71    2.47
   0   3   7   23.52    2.52
   0   3   7   19.41    2.40
   0  -3  -7   20.72    2.36
   0   3   7   21.19    2.17
   0   3   8    8.67    1.89
   0  -3  -8    8.50    1.87
   0   3   8    6.25    1.59
   0   3   8    7.57    1.64
   0   3   8    7.35    1.75
   0  -3  -8    7.29    1.53
   0  -3  -8    4.84    1.64
   0   3   8    9.42    1.66
   0   3   8    6.09    1.65
   0   3   8    9.80    1.91
   0   3   9   34.57    3.62
   0   3   9   33.69    3.65
   0   3   9   33.51    3.28
   0   3   9   33.61    3.62
   0  -3  -9   32.32    3.73
   0  -3  -9   34.97    3.80
   0   3   9   31.04    3.40
   0   3   9   30.70    3.40
   0  -3 -10  120.87    6.91
   0   3  10  116.05    6.06
   0   3  10  120.71    6.99
   0   3  10  115.12    6.61
   0   3  10  112.54    6.56
   0   3  10  121.68    6.70
   0   3  11   79.92    5.09
   0   3  11   79.75    4.60
   0   3  11   79.38    4.78
   0  -3 -11   78.11    4.85
   0   3  11   68.86    4.01
   0  -3 -12    0.61    0.56
   0  -3 -12    0.25    0.53
   0   3  12   -0.96    0.55
   0  -4   8  250.31    8.83
   0  -4   8  240.69    8.81
   0   4  -8  243.22    8.51
   0  -4   8  228.50    8.15
   0  -4   7  137.68    6.30
   0  -4   7  132.78    5.89
   0  -4   7  134.81    6.52
   0  -4   7  128.23    5.92
   0   4  -7  133.53    6.90
   0  -4   6    0.14    0.82
   0  -4   6    1.54    0.92
   0   4  -6    2.92    1.07
   0  -4   6    3.58    1.22
   0  -4   6    2.49    1.18
   0  -4   6    0.59    0.74
   0  -4   5   88.55    5.76
   0   4  -5   84.98    6.09
   0  -4   5   85.22    5.65
   0  -4   5   85.98    5.66
   0  -4   5   87.60    6.03
   0   4  -5   84.18    6.24
   0   4  -5   89.11    6.25
   0  -4   4   55.64    4.67
   0   4  -4   59.59    5.04
   0  -4   4   53.84    4.33
   0   4  -4   60.46    4.94
   0  -4   4   54.27    4.39
   0  -4   3  156.27    6.93
   0  -4   3  144.22    7.39
   0   4  -3  143.28    7.56
   0  -4   3  145.18    7.19
   0   4  -3  142.83    7.80
   0  -4   3  144.52    7.33
   0  -4   2   18.82    2.39
   0   4  -2   17.47    2.03
   0  -4   2   17.29    2.11
   0  -4   2   21.49    2.53
   0   4  -2   19.56    2.47
   0  -4   2   20.01    2.15
   0  -4   2   24.01    2.60
   0  -4   2   18.11    2.35
   0   4  -2   15.84    2.29
   0  -4   2   18.10    2.46
   0   4  -1  541.58   16.79
   0  -4   1  520.96   15.76
   0   4  -1  522.24   15.27
   0  -4   1  529.61   16.40
   0  -4   1  491.27   15.49
   0   4  -1  516.77   15.81
   0  -4   1  533.42   16.17
   0  -4   1  499.48   16.23
   0  -4   1  533.49   16.15
   0  -4   1  560.39   16.87
   0   4   0  371.11   12.66
   0  -4   0  374.12   12.55
   0  -4   0  371.59   12.12
   0  -4   0  362.30   11.88
   0  -4   0  354.43   12.40
   0   4   0  364.52   11.79
   0   4   0  360.70   11.47
   0   4   0  380.16   12.65
   0  -4   0  354.73   11.92
   0   4   1   88.91    5.21
   0   4   1   99.38    5.34
   0  -4  -1  101.40    5.32
   0   4   1  101.76    5.14
   0   4   1   98.67    4.37
   0   4   1   99.65    4.83
   0  -4  -1   91.01    5.21
   0  -4  -1  104.07    5.28
   0   4   2  199.61    6.37
   0   4   2  206.53    7.58
   0   4   2  212.15    8.22
   0  -4  -2  194.31    7.87
   0   4   2  202.37    7.92
   0  -4  -2  186.93    8.07
   0   4   2  195.56    8.24
   0  -4  -3 3621.03   84.96
   0  -4  -3 3241.31   84.39
   0   4   3 3802.27   82.73
   0  -4  -3 3584.52   84.88
   0   4   3 3691.59   84.43
   0   4   3 3653.66   85.11
   0  -4  -3 3687.32   85.52
   0  -4  -3 3613.69   85.64
   0   4   3 3790.19   85.83
   0   4   3 3491.89   85.03
   0   4   3 3491.66   84.82
   0   4   4  207.71    8.36
   0   4   4  206.67    8.14
   0   4   4  217.14    8.59
   0   4   4  196.87    8.45
   0  -4  -4  213.39    8.31
   0   4   4  216.68    8.95
   0  -4  -4  202.53    8.83
   0  -4  -4  207.35    8.57
   0  -4  -4  208.93    8.26
   0  -4  -4  198.78    8.63
   0   4   4  202.69    7.27
   0  -4  -5  415.37   13.48
   0   4   5  404.44   13.17
   0  -4  -5  393.75   12.95
   0  -4  -5  381.31   12.70
   0  -4  -5  368.69   13.75
   0  -4  -5  384.82   13.61
   0  -4  -5  385.82   13.69
   0   4   5  385.02   12.31
   0   4   5  397.58   13.16
   0   4   5  394.17   13.81
   0   4   6   25.81    2.61
   0   4   6   30.10    2.88
   0  -4  -6   25.72    3.09
   0   4   6   34.84    3.13
   0  -4  -6   22.35    2.85
   0  -4  -6   27.66    2.77
   0   4   6   27.52    2.88
   0  -4  -6   29.74    2.92
   0  -4  -6   37.13    2.95
   0   4   6   29.19    3.24
   0   4   6   27.29    2.48
   0  -4  -6   23.70    2.85
   0  -4  -7   89.80    5.30
   0  -4  -7   84.55    5.91
   0   4   7   75.44    4.82
   0   4   7   88.54    5.48
   0   4   7   84.74    5.28
   0  -4  -7   75.12    5.64
   0   4   7   69.28    4.85
   0   4   7   94.98    5.50
   0   4   7   79.38    5.55
   0  -4  -7   88.36    5.80
   0   4   8   44.16    3.92
   0  -4  -8   55.14    4.86
   0   4   8   42.81    3.96
   0   4   8   51.37    4.12
   0  -4  -8   44.70    4.25
   0  -4  -8   41.90    4.35
   0   4   8   49.97    3.99
   0   4   8   47.68    4.30
   0   4   9    5.73    1.53
   0  -4  -9    9.22    2.15
   0  -4  -9    8.05    1.98
   0  -4  -9    7.34    1.77
   0   4   9    5.87    1.45
   0   4   9    5.75    1.59
   0   4   9    7.56    1.71
   0   4   9    8.81    2.07
   0   4   9    7.91    1.81
   0   4  10   71.97    4.45
   0   4  10   71.14    5.14
   0   4  10   75.12    5.01
   0  -4 -10   77.94    5.51
   0   4  10   72.48    5.00
   0  -4 -10   76.49    5.08
   0   4  10   73.43    4.68
   0   4  11  704.73   20.69
   0   4  11  685.49   19.59
   0   4  11  715.52   20.41
   0   4  11  671.94   19.12
   0   4  11  724.63   20.82
   0  -4 -11  708.98   19.92
   0  -4 -12   72.46    3.70
   0   4  12   73.33    3.80
   0  -5   7   16.20    1.64
   0  -5   7   13.42    1.36
   0   5  -7   14.49    1.61
   0  -5   6   25.98    2.43
   0  -5   6   23.00    2.25
   0  -5   6   25.63    2.29
   0  -5   6   23.47    2.20
   0   5  -6   22.55    2.58
   0  -5   5  203.44    8.60
   0  -5   5  194.96    8.45
   0   5  -5  203.98    9.37
   0  -5   5  200.52    8.62
   0  -5   5  196.66    8.46
   0  -5   4   31.98    3.24
   0  -5   4   27.27    3.13
   0   5  -4   25.37    3.27
   0  -5   4   24.90    2.83
   0   5  -3    1.05    0.97
   0  -5   3    0.95    0.79
   0   5  -3    0.95    1.17
   0  -5   3    1.19    1.16
   0  -5   3    1.72    1.00
   0   5  -2   46.79    4.43
   0  -5   2   45.52    3.58
   0   5  -2   36.06    3.48
   0   5  -2   36.91    3.26
   0   5  -2   37.70    3.43
   0  -5   2   42.87    3.89
   0  -5   2   27.14    3.29
   0  -5   2   32.50    3.20
   0  -5   1  151.34    7.78
   0   5  -1  146.33    7.58
   0  -5   1  162.72    7.64
   0   5  -1  145.41    7.30
   0  -5   1  168.62    8.42
   0   5  -1  172.92    8.72
   0  -5   1  149.71    7.07
   0  -5   1  165.56    8.53
   0  -5   1  160.22    7.74
   0  -5   1  164.92    7.83
   0   5  -1  152.34    7.31
   0   5  -1  153.13    6.91
   0   5   0   29.83    2.76
   0  -5   0   32.20    3.47
   0  -5   0   26.07    2.78
   0   5   0   28.89    2.77
   0  -5   0   30.47    3.17
   0  -5   0   30.02    3.37
   0   5   0   25.79    2.80
   0   5   0   26.31    2.82
   0  -5   0   27.15    2.70
   0  -5   0   25.59    2.79
   0  -5   0   32.78    3.33
   0   5   0   26.90    3.19
   0  -5  -1   33.48    3.40
   0  -5  -1   30.79    3.39
   0  -5  -1   30.20    2.82
   0  -5  -1   37.54    3.61
   0   5   1   36.48    3.05
   0   5   1   30.85    2.93
   0  -5  -1   34.73    3.14
   0  -5  -1   31.68    3.36
   0   5   1   35.74    3.58
   0   5   1   39.43    3.71
   0   5   1   32.74    3.18
   0   5   2   44.71    3.43
   0  -5  -2   42.17    3.89
   0  -5  -2   45.13    3.48
   0  -5  -2   38.75    3.58
   0   5   2   41.61    3.67
   0   5   2   40.96    3.81
   0  -5  -2   34.26    3.43
   0   5   2   39.04    3.42
   0  -5  -2   37.20    3.85
   0   5   2   41.65    3.88
   0   5   3    6.37    1.35
   0   5   3    9.86    1.99
   0   5   3    8.11    1.71
   0   5   3    7.27    1.68
   0  -5  -3    6.92    1.56
   0   5   3    7.08    1.75
   0  -5  -3    9.28    1.80
   0  -5  -3    4.18    1.33
   0  -5  -3    6.73    1.87
   0  -5  -3    8.09    1.80
   0  -5  -3    5.29    1.27
   0  -5  -4  119.45    5.97
   0  -5  -4  124.73    6.73
   0   5   4  121.90    6.70
   0  -5  -4  120.77    7.11
   0  -5  -4  126.72    7.01
   0   5   4  125.14    6.41
   0   5   4  127.44    6.91
   0  -5  -4  124.02    6.76
   0   5   4  135.53    7.14
   0   5   4  124.67    7.12
   0  -5  -4  110.70    6.81
   0   5   5   50.01    4.20
   0   5   5   51.88    4.33
   0  -5  -5   50.30    4.08
   0  -5  -5   42.86    4.03
   0  -5  -5   54.14    4.19
   0  -5  -5   49.85    4.35
   0  -5  -5   47.47    4.13
   0  -5  -5   40.91    4.04
   0   5   5   43.40    3.71
   0   5   5   50.29    4.39
   0   5   5   50.37    3.93
   0  -5  -6  590.21   19.15
   0  -5  -6  550.86   19.30
   0   5   6  532.40   17.44
   0  -5  -6  556.06   19.20
   0   5   6  570.78   18.59
   0   5   6  583.74   19.29
   0  -5  -6  598.72   18.23
   0   5   6  567.43   18.99
   0  -5  -6  595.27   18.47
   0   5   6  614.72   18.62
   0   5   6  559.75   17.87
   0  -5  -6  601.98   19.05
   0   5   7  482.84   16.40
   0   5   7  492.78   17.29
   0  -5  -7  490.94   17.71
   0   5   7  493.38   16.64
   0  -5  -7  469.70   17.37
   0  -5  -7  487.62   16.98
   0   5   7  484.79   15.73
   0  -5  -7  515.78   15.63
   0   5   7  507.66   16.70
   0   5   7  453.92   16.74
   0  -5  -8   44.82    4.37
   0   5   8   41.91    4.10
   0   5   8   42.77    4.09
   0  -5  -8   38.89    4.27
   0   5   8   46.01    3.78
   0   5   8   50.42    4.18
   0   5   8   52.16    4.22
   0  -5  -8   45.16    4.08
   0   5   9   35.40    3.53
   0   5   9   34.44    3.59
   0   5   9   35.06    3.19
   0   5   9   38.65    3.60
   0  -5  -9   43.98    3.83
   0  -5  -9   38.71    3.93
   0   5  10   18.93    2.45
   0   5  10   20.86    2.47
   0   5  10   16.26    2.29
   0  -5 -10   18.23    2.52
   0   5  10   19.41    2.32
   0  -5 -10   17.18    2.11
   0   5  11   35.12    2.55
   0  -5 -11   36.47    2.44
   0   5  11   40.77    3.06
   0   5  11   42.30    3.06
   0   5  11   41.46    3.13
   0   5  12   16.90    1.44
   0  -6   5   16.05    1.59
   0   6  -5   20.29    2.04
   0  -6   5   16.63    1.72
   0  -6   5   13.88    1.45
   0  -6   4    3.15    0.94
   0   6  -4    3.76    1.31
   0  -6   4    2.90    0.91
   0  -6   4    3.44    1.08
   0  -6   3   19.07    2.05
   0  -6   3   17.39    2.28
   0  -6   3   20.53    2.45
   0   6  -3   23.70    2.87
   0  -6   2   40.00    3.08
   0  -6   2   34.34    3.29
   0   6  -2   36.29    3.12
   0  -6   2   37.95    3.61
   0   6  -2   35.96    3.74
   0  -6   1    8.48    1.79
   0  -6   1    8.08    1.66
   0   6  -1    6.05    1.57
   0  -6   1    8.48    2.09
   0   6  -1    7.00    1.74
   0   6   0  130.98    7.38
   0  -6   0  156.49    8.53
   0  -6   0  146.62    7.78
   0  -6   0  160.29    8.70
   0   6   0  156.23    8.04
   0   6   0  163.92    8.66
   0  -6   0  149.95    7.73
   0   6   1  226.65   10.42
   0  -6  -1  223.07   10.77
   0  -6  -1  221.46   10.35
   0   6   1  200.05    9.49
   0   6   1  210.24    8.50
   0  -6  -1  195.27    9.52
   0  -6  -1  210.06    9.73
   0  -6  -1  207.98    8.85
   0   6   1  189.20    9.51
   0   6   1  217.01    8.86
   0   6   2   14.85    2.52
   0  -6  -2   14.90    2.06
   0   6   2   14.97    2.06
   0  -6  -2   14.22    2.40
   0   6   2   14.41    2.19
   0  -6  -2   11.08    2.37
   0   6   2   10.72    2.16
   0   6   2    7.91    1.70
   0  -6  -2   12.46    2.33
   0   6   2   12.59    2.28
   0  -6  -2   11.78    2.20
   0   6   3   38.50    3.37
   0  -6  -3   36.27    3.83
   0   6   3   35.38    3.82
   0   6   3   32.15    3.29
   0  -6  -3   33.20    3.93
   0   6   3   35.00    3.70
   0   6   3   38.08    3.83
   0  -6  -3   30.60    3.54
   0  -6  -3   36.82    3.16
   0   6   3   36.93    3.70
   0   6   3   29.69    3.47
   0  -6  -3   38.52    3.85
   0  -6  -4  278.62   11.80
   0   6   4  282.38   11.99
   0   6   4  274.63   11.65
   0   6   4  298.13   11.16
   0   6   4  275.37   11.37
   0  -6  -4  287.49   12.28
   0   6   4  317.80   12.61
   0  -6  -4  301.84   12.18
   0  -6  -4  313.59   13.25
   0   6   4  277.58   11.84
   0   6   4  303.39   12.56
   0   6   5   15.91    2.50
   0   6   5   19.51    2.50
   0  -6  -5   18.89    2.86
   0   6   5   16.59    2.62
   0  -6  -5   15.60    2.45
   0  -6  -5   22.09    3.15
   0   6   5   18.83    2.65
   0  -6  -5   22.30    2.90
   0   6   5   18.61    2.77
   0   6   5   19.91    2.85
   0  -6  -5   24.56    3.02
   0   6   6   10.30    2.26
   0  -6  -6    8.25    1.87
   0  -6  -6    8.90    2.04
   0   6   6    9.09    1.91
   0   6   6    5.57    1.56
   0   6   6    5.16    1.39
   0   6   6    7.72    1.80
   0   6   6    9.03    2.01
   0  -6  -6    6.08    1.74
   0  -6  -6    7.84    1.82
   0   6   6    7.24    1.89
   0  -6  -7   50.91    3.85
   0   6   7   50.81    4.42
   0   6   7   50.79    4.30
   0   6   7   51.73    4.30
   0  -6  -7   53.33    4.75
   0  -6  -7   50.71    4.20
   0   6   7   51.85    3.80
   0   6   7   49.81    4.03
   0   6   8    2.89    1.36
   0  -6  -8    1.51    0.89
   0  -6  -8    1.28    1.01
   0   6   8    2.86    1.38
   0   6   8    1.04    0.74
   0   6   8    1.35    0.77
   0  -6  -9  350.00   12.66
   0  -6  -9  335.38   11.42
   0   6   9  339.59   12.08
   0   6   9  331.60   11.97
   0   6   9  346.33   11.62
   0   6   9  366.28   12.06
   0  -6 -10   22.75    2.32
   0   6  10   19.34    1.96
   0   6  10   19.36    1.96
   0   6  10   19.51    2.12
   0   6  10   22.15    2.13
   0  -6 -10   17.56    1.61
   0   6  10   21.11    2.11
   0   6  11   19.67    1.63
   0  -6 -11   19.59    1.66
   0  -7   3   13.04    1.26
   0  -7   3   12.94    1.38
   0  -7   3   12.88    1.41
   0   7  -3   11.97    1.41
   0  -7   2   26.49    2.30
   0  -7   2   22.76    2.04
   0   7  -2   24.91    2.35
   0  -7   2   22.15    2.09
   0   7  -1    1.69    0.75
   0   7  -1   -0.09    0.81
   0  -7   1    0.13    0.74
   0   7   0   14.02    2.00
   0  -7   0   14.99    2.00
   0  -7   0   11.57    1.72
   0   7   0   15.49    2.10
   0  -7  -1   -0.03    0.78
   0   7   1   -0.66    0.95
   0  -7  -1    0.11    0.76
   0   7   2   49.74    3.55
   0  -7  -2   55.32    4.34
   0   7   2   47.13    4.12
   0  -7  -2   59.73    4.42
   0  -7  -3   -1.14    1.00
   0  -7  -3    0.80    1.10
   0   7   3    0.43    0.52
   0   7   3    0.33    0.95
   0   7   3    1.22    0.98
   0   7   4   11.82    2.10
   0   7   4   11.71    1.93
   0  -7  -4   11.83    2.04
   0  -7  -4   14.15    2.27
   0   7   4   12.96    1.73
   0   7   4   11.88    1.87
   0   7   5   65.42    4.36
   0   7   5   65.65    4.60
   0   7   5   64.65    4.67
   0  -7  -5   67.85    4.92
   0   7   5   76.15    4.38
   0  -7  -5   70.94    4.86
   0   7   5   69.15    4.98
   0  -7  -6    0.14    0.65
   0   7   6    1.33    0.81
   0   7   6   -0.56    0.70
   0   7   6    1.07    0.73
   0   7   6    1.93    1.05
   0  -7  -6    1.42    1.07
   0   7   6    0.14    0.77
   0  -7  -7   39.04    2.99
   0   7   7   41.56    3.05
   0   7   7   39.38    3.30
   0   7   7   38.45    3.11
   0   7   7   43.63    3.51
   0   7   7   35.99    2.76
   0  -7  -7   34.75    3.25
   0   7   8    9.72    1.51
   0   7   8    9.78    1.57
   0   7   8   10.06    1.45
   0   7   8   10.49    1.53
   0  -7  -8   11.25    1.65
   0   7   9   20.24    1.87
   0   7   9   19.50    1.77
   0   7   9   19.68    1.82
   0  -7  -9   20.57    1.98
   0   7   9   21.87    1.93
   0  -8  -1   53.29    2.88
   0   8   1   44.93    2.61
   0  -8  -2   96.08    4.11
   0   8   2   93.74    4.45
   0   8   3   23.44    2.18
   0  -8  -3   24.50    2.02
   0  -8  -4    1.17    0.68
   0   8   4    1.09    0.77
   0   8   4    1.27    0.52
   0   8   5    0.89    0.59
   0  -8  -5    0.52    0.50
   0   8   5    0.57    0.56
   0   8   6   45.37    2.61
   0   8   6   48.97    2.81
   0  -8  -6   51.80    2.93
   0  -8  -7   33.84    2.14
   0   8   7   34.15    2.14
  -1   7   8   18.03    1.55
  -1   7   8   14.73    1.53
  -1   7   8   18.07    1.60
   1  -7  -8   17.99    1.63
  -1   7   7    1.80    0.66
   1  -7  -7    1.23    0.51
  -1   7   7    1.34    0.67
  -1   7   7    1.23    0.54
  -1   7   6   -0.75    0.71
  -1   7   6    0.96    0.79
   1  -7  -6    1.00    0.76
  -1   7   6    0.78    0.54
  -1   7   6   -0.20    0.59
  -1   7   5   19.34    2.23
  -1   7   5   21.02    2.20
   1  -7  -5   18.18    2.19
   1  -7  -5   18.10    2.09
  -1   7   5   17.14    2.00
  -1   7   5   18.95    1.78
   1  -7  -4    9.32    1.53
  -1   7   4   10.23    1.63
  -1   7   4   11.25    1.66
   1  -7  -4   10.32    1.74
  -1   7   4   11.30    1.80
   1  -7  -3   54.66    3.94
  -1   7   3   47.20    3.17
  -1   7   3   51.94    3.92
  -1   7   3   52.60    3.46
   1  -7  -3   50.02    3.50
  -1   7   2   23.37    2.59
   1  -7  -2   21.03    2.11
   1  -7  -2   27.80    2.78
   1  -7  -1   27.48    2.21
   1  -7  -1   25.02    2.48
  -1   7   1   31.28    2.82
   1  -7   0    2.82    0.89
  -1   7   0    2.34    0.90
   1  -7   1    1.28    0.65
   1  -7   2    5.01    0.86
   1  -7   2    6.91    0.97
  -1   6  10   40.53    2.47
  -1   6  10   38.17    2.35
   1  -6 -10   40.26    2.56
   1  -6  -9    8.86    1.52
  -1   6   9    7.54    1.33
  -1   6   9    8.43    1.33
  -1   6   9    7.96    1.36
  -1   6   9    8.96    1.40
  -1   6   9    9.10    1.41
  -1   6   9    8.18    1.21
  -1   6   8  180.35    7.83
  -1   6   8  159.44    7.21
   1  -6  -8  168.13    7.80
  -1   6   8  174.92    7.05
  -1   6   8  185.43    7.80
  -1   6   8  181.64    7.46
  -1   6   7   17.63    2.39
  -1   6   7   20.53    2.56
  -1   6   7   21.64    2.57
  -1   6   7   22.16    2.69
   1  -6  -7   22.26    2.75
  -1   6   7   21.42    2.30
   1  -6  -6    8.18    1.68
  -1   6   6    5.62    1.55
   1  -6  -6   10.20    1.99
  -1   6   6    7.00    1.73
  -1   6   6    5.81    1.60
  -1   6   6    7.37    1.54
  -1   6   6    7.33    1.44
  -1   6   6    7.43    1.79
   1  -6  -5   27.54    3.15
  -1   6   5   27.88    3.19
   1  -6  -5   23.45    3.02
  -1   6   5   27.78    3.16
  -1   6   5   23.92    2.89
  -1   6   5   21.79    2.31
  -1   6   5   27.16    3.10
  -1   6   4   22.20    2.85
   1  -6  -4   20.01    3.06
   1  -6  -4   20.47    2.86
  -1   6   4   19.76    2.85
  -1   6   4   21.36    2.90
  -1   6   4   22.29    2.82
   1  -6  -4   20.86    2.81
  -1   6   4   15.08    2.40
   1  -6  -4   17.38    2.58
   1  -6  -3   12.03    2.20
  -1   6   3   10.43    2.08
   1  -6  -3   13.44    2.44
  -1   6   3   10.93    2.17
  -1   6   3   10.76    1.92
   1  -6  -3   13.85    2.26
  -1   6   3   14.19    2.34
  -1   6   3   15.11    2.32
   1  -6  -3   11.37    2.33
  -1   6   2   64.04    4.94
   1  -6  -2   57.82    4.72
  -1   6   2   55.77    4.79
   1  -6  -2   69.77    5.80
   1  -6  -2   64.22    4.78
   1  -6  -2   60.67    5.07
  -1   6   2   56.79    4.70
  -1   6   2   64.92    4.73
  -1   6   2   65.85    4.50
  -1   6   1   13.30    2.05
   1  -6  -1   10.10    1.92
   1  -6  -1    7.47    1.66
  -1   6   1    9.37    2.04
   1  -6   0   17.81    2.30
  -1   6   0   20.09    2.70
   1  -6   0   15.94    2.32
  -1   6   0   15.06    2.16
  -1   6  -1  145.87    7.18
   1  -6   1  141.17    6.72
   1  -6   1  132.68    6.33
  -1   6  -1  128.87    6.71
  -1   6  -2    0.47    0.79
  -1   6  -2   -0.65    0.77
   1  -6   2   -0.47    0.71
   1  -6   3   46.23    2.98
   1  -6   3   48.09    3.59
  -1   6  -3   45.53    3.53
  -1   6  -4   51.19    3.32
   1  -6   4   50.68    3.12
   1  -6   4   47.25    3.08
   1  -6   4   44.07    2.74
  -1   6  -5    7.33    0.99
  -1   5  11    4.33    0.90
   1  -5 -11    3.44    0.88
  -1   5  11    2.09    0.54
  -1   5  10   44.48    3.33
  -1   5  10   51.78    3.44
  -1   5  10   47.15    3.22
  -1   5  10   50.56    3.61
   1  -5 -10   47.55    3.63
  -1   5   9  146.52    7.07
  -1   5   9  131.01    6.91
  -1   5   9  127.37    5.91
  -1   5   9  138.68    6.68
   1  -5  -9  135.45    7.22
  -1   5   9  147.00    6.67
  -1   5   9  132.37    6.51
  -1   5   9  123.37    6.12
  -1   5   8   22.18    2.65
  -1   5   8   20.35    2.62
  -1   5   8   24.51    3.06
  -1   5   8   24.10    2.87
  -1   5   8   21.12    2.45
   1  -5  -8   24.22    3.14
  -1   5   7   28.65    3.41
   1  -5  -7   28.84    3.55
   1  -5  -7   26.67    3.35
  -1   5   7   38.75    3.74
  -1   5   7   36.10    3.62
   1  -5  -7   31.00    3.12
   1  -5  -7   37.10    3.69
  -1   5   7   31.20    3.13
  -1   5   7   32.05    3.07
   1  -5  -6  167.39    8.53
  -1   5   6  168.02    8.57
   1  -5  -6  175.55    9.12
  -1   5   6  172.94    8.02
  -1   5   6  177.25    8.81
  -1   5   6  175.11    8.96
   1  -5  -6  172.03    8.82
   1  -5  -6  178.29    8.20
  -1   5   6  180.30    8.13
  -1   5   6  171.75    8.12
   1  -5  -6  170.54    8.62
   1  -5  -6  175.84    8.16
  -1   5   6  179.33    8.14
   1  -5  -5   77.83    5.81
   1  -5  -5   87.86    6.03
  -1   5   5   87.98    5.98
  -1   5   5   83.47    5.64
  -1   5   5   82.23    5.37
  -1   5   5   90.52    5.26
  -1   5   5   77.78    5.65
   1  -5  -5   88.33    5.67
   1  -5  -5   82.34    5.94
  -1   5   5   75.38    5.47
   1  -5  -5   92.86    5.63
  -1   5   5   87.67    5.34
  -1   5   5   81.10    5.69
   1  -5  -4   11.88    2.20
  -1   5   4    5.93    1.27
  -1   5   4    8.55    1.63
   1  -5  -4    9.81    2.03
  -1   5   4    9.43    1.83
  -1   5   4   10.00    2.10
  -1   5   4   10.33    2.02
  -1   5   4    8.61    1.64
   1  -5  -4    8.16    1.82
  -1   5   4    8.70    1.95
  -1   5   4    6.55    1.60
  -1   5   4    7.21    1.65
   1  -5  -3    5.87    1.62
  -1   5   3    4.68    1.45
  -1   5   3    4.32    1.30
   1  -5  -3    7.90    1.80
  -1   5   3    6.64    1.64
  -1   5   3    4.33    1.49
  -1   5   3    4.48    1.17
   1  -5  -3    5.34    1.63
  -1   5   3    4.97    1.55
  -1   5   3    6.05    1.60
  -1   5   3    3.81    1.26
  -1   5   2   20.93    2.48
  -1   5   2   22.14    2.94
   1  -5  -2   18.61    2.73
  -1   5   2   22.30    2.83
   1  -5  -2   17.73    2.54
  -1   5   2   18.67    2.64
   1  -5  -2   19.06    2.72
  -1   5   2   17.98    2.58
  -1   5   2   16.97    2.71
   1  -5  -1    0.09    0.79
  -1   5   1    0.70    0.79
  -1   5   1    0.33    0.79
   1  -5  -1   -0.63    0.81
  -1   5   1    0.23    1.06
   1  -5  -1   -0.34    0.96
  -1   5   1    0.14    0.96
  -1   5   1   -0.18    0.70
  -1   5   1   -0.34    1.02
  -1   5   0   -0.06    0.89
  -1   5   0   -0.10    0.82
   1  -5   0   -0.24    1.15
   1  -5   0   -0.51    0.98
   1  -5   0    0.04    0.81
  -1   5   0    0.32    1.07
   1  -5   0    0.26    0.82
  -1   5   0    0.42    0.82
   1  -5   1  205.23    8.96
   1  -5   1  206.55    9.04
   1  -5   1  200.64    9.70
  -1   5  -1  200.61    9.58
  -1   5  -1  182.63    8.66
  -1   5  -1  189.61    9.03
   1  -5   1  194.93    9.77
   1  -5   2  139.75    6.94
   1  -5   2  146.72    7.80
  -1   5  -2  156.53    8.28
  -1   5  -2  146.70    7.34
   1  -5   2  158.84    7.42
  -1   5  -2  137.87    7.87
   1  -5   3   49.45    4.36
  -1   5  -3   43.85    4.20
  -1   5  -4    5.13    1.51
   1  -5   4    6.30    1.29
   1  -5   4    6.95    1.74
   1  -5   5   -0.49    0.63
  -1   5  -5    1.08    1.01
   1  -5   5   -0.82    1.02
   1  -5   6   26.16    2.07
   1  -5   6   23.82    2.17
   1  -5   6   24.79    1.83
  -1   5  -6   29.49    2.61
   1  -4 -12   12.20    1.24
  -1   4  11   70.81    4.06
   1  -4 -11   65.21    4.08
  -1   4  11   61.22    3.41
  -1   4  11   67.50    3.98
  -1   4  10    9.60    1.72
  -1   4  10    9.05    1.65
  -1   4  10    8.77    1.72
  -1   4  10    8.61    1.50
   1  -4 -10    8.84    1.90
  -1   4  10    9.32    1.73
   1  -4  -9    3.19    1.23
  -1   4   9    2.64    1.27
   1  -4  -9    1.28    1.22
  -1   4   9    2.52    1.26
  -1   4   9    4.91    1.35
  -1   4   9    1.60    0.76
  -1   4   9    4.54    1.44
  -1   4   9    3.54    1.30
  -1   4   9    3.48    1.26
  -1   4   8   18.84    2.58
  -1   4   8   19.32    2.68
   1  -4  -8   19.45    2.54
  -1   4   8   18.78    2.75
   1  -4  -8   18.97    2.94
  -1   4   8   16.67    2.34
   1  -4  -8   18.69    2.58
   1  -4  -8   20.16    2.97
  -1   4   8   19.21    2.53
  -1   4   8   16.84    2.41
   1  -4  -7  746.27   21.33
  -1   4   7  604.30   20.73
  -1   4   7  716.34   21.54
  -1   4   7  686.14   21.37
  -1   4   7  736.37   21.37
   1  -4  -7  660.22   22.18
   1  -4  -7  699.70   21.64
  -1   4   7  685.91   20.68
  -1   4   7  703.82   22.23
   1  -4  -7  661.57   21.79
   1  -4  -6    0.87    0.75
   1  -4  -6    2.01    1.35
  -1   4   6    0.89    0.88
   1  -4  -6   -0.66    1.02
  -1   4   6    1.28    0.98
   1  -4  -6    1.95    1.16
  -1   4   6    1.50    0.87
   1  -4  -6    0.84    1.04
  -1   4   6    0.83    0.82
  -1   4   6    0.85    1.20
  -1   4   6    2.46    1.31
   1  -4  -6    1.20    0.78
  -1   4   6    0.22    0.80
  -1   4   6    4.09    1.36
  -1   4   6    0.86    0.77
  -1   4   5   35.68    3.12
  -1   4   5   34.35    3.22
  -1   4   5   33.46    3.28
   1  -4  -5   33.70    3.30
  -1   4   5   34.83    3.41
  -1   4   5   30.88    2.64
   1  -4  -5   35.06    3.65
  -1   4   5   28.77    3.20
   1  -4  -5   34.42    3.39
  -1   4   5   34.58    3.08
   1  -4  -5   27.79    2.96
  -1   4   5   28.10    2.95
   1  -4  -5   35.09    3.18
  -1   4   5   31.00    3.13
  -1   4   4  257.22    9.93
   1  -4  -4  247.29    9.71
  -1   4   4  241.11    9.67
  -1   4   4  264.03   10.15
   1  -4  -4  246.68    9.74
   1  -4  -4  226.41   10.00
  -1   4   4  237.34    9.98
  -1   4   4  229.19    9.29
   1  -4  -4  250.63    9.66
   1  -4  -4  243.42   10.09
  -1   4   4  233.01    9.64
  -1   4   4  230.77    9.95
  -1   4   4  250.58    9.23
  -1   4   3  290.49   11.01
   1  -4  -3  274.83   11.01
   1  -4  -3  274.78   10.62
   1  -4  -3  283.82   10.99
   1  -4  -3  300.72    9.70
  -1   4   3  300.30   10.86
  -1   4   3  282.33   10.54
  -1   4   3  279.59   11.05
  -1   4   3  273.20   10.45
   1  -4  -3  294.31   10.28
  -1   4   3  287.42    9.87
  -1   4   3  296.95   10.95
  -1   4   3  299.80   11.25
   1  -4  -3  270.19   10.54
   1  -4  -2   29.92    2.36
   1  -4  -2   32.31    3.08
  -1   4   2   27.61    2.76
  -1   4   2   26.61    2.87
  -1   4   2   28.88    2.75
  -1   4   2   28.97    2.88
  -1   4   2   32.17    3.18
  -1   4   2   30.36    3.09
   1  -4  -2   27.40    2.93
   1  -4  -2   32.64    3.16
  -1   4   2   27.65    2.37
  -1   4   2   27.99    2.79
   1  -4  -1   83.54    5.05
   1  -4  -1   82.76    5.26
  -1   4   1   97.54    5.38
  -1   4   1   86.32    5.35
  -1   4   1   76.64    4.83
  -1   4   1   77.12    5.06
  -1   4   1   80.02    4.77
  -1   4   1   74.29    4.78
   1  -4  -1   84.20    4.10
  -1   4   1   79.87    4.86
   1  -4  -1   86.83    5.13
  -1   4   1   80.40    4.12
  -1   4   0  102.89    5.56
   1  -4   0   99.44    5.62
   1  -4   0   93.84    5.78
   1  -4   0   95.46    5.51
  -1   4   0   95.30    5.44
  -1   4   0   96.64    5.74
  -1   4   0  102.53    5.78
   1  -4   0  112.19    4.91
   1  -4   0  105.06    5.29
  -1   4   0  104.89    5.72
  -1   4  -1   61.51    4.26
  -1   4  -1   58.42    4.42
  -1   4  -1   53.98    3.93
  -1   4  -1   52.98    4.14
  -1   4  -1   59.87    4.26
  -1   4  -1   53.68    3.57
   1  -4   1   58.16    4.51
   1  -4   1   56.34    4.10
   1  -4   1   55.08    4.00
  -1   4  -2  353.75   12.81
   1  -4   2  361.67   12.33
   1  -4   2  355.25   13.58
   1  -4   2  364.58   12.74
  -1   4  -2  372.54   12.70
  -1   4  -2  384.60   13.71
  -1   4  -2  345.57   12.17
   1  -4   2  355.19   12.13
   1  -4   3  136.93    6.97
  -1   4  -3  148.40    8.13
  -1   4  -3  149.30    7.95
   1  -4   3  153.33    7.34
   1  -4   3  141.94    7.02
  -1   4  -3  147.22    7.54
   1  -4   4  137.57    7.82
  -1   4  -4  142.37    8.01
   1  -4   4  148.93    7.32
   1  -4   4  149.13    7.39
  -1   4  -4  135.48    7.68
  -1   4  -4  145.45    8.22
   1  -4   4  143.18    7.40
   1  -4   5  408.11   15.09
  -1   4  -5  436.74   15.89
   1  -4   5  413.82   14.16
   1  -4   5  398.11   14.16
  -1   4  -5  417.19   15.45
  -1   4  -5  398.49   15.21
  -1   4  -6   27.58    3.24
   1  -4   6   26.40    2.99
   1  -4   6   27.86    2.59
   1  -4   6   26.61    2.72
  -1   4  -7  120.05    6.27
   1  -4   7  119.50    5.32
   1  -4   7  111.78    4.97
   1  -4   7  128.67    6.06
  -1   4  -8   15.75    1.69
   1  -4   8   18.80    1.81
   1  -4   8   15.18    1.66
  -1   3  12   58.34    2.96
  -1   3  12   50.83    2.70
   1  -3 -12   59.04    3.22
  -1   3  11   11.62    1.74
   1  -3 -11   18.27    2.30
  -1   3  11   16.19    2.04
  -1   3  11   12.81    1.78
  -1   3  10    0.39    0.84
  -1   3  10    2.17    0.76
  -1   3  10    0.18    0.72
  -1   3  10   -0.59    1.03
  -1   3  10    0.14    0.71
  -1   3  10    1.29    1.06
   1  -3 -10    0.61    0.75
  -1   3   9    0.43    0.90
  -1   3   9    1.07    1.06
  -1   3   9   -0.57    1.16
  -1   3   9    1.54    0.90
   1  -3  -9    1.27    1.01
  -1   3   9   -0.12    1.10
  -1   3   9    1.32    1.13
  -1   3   9    0.14    0.98
   1  -3  -9   -0.57    0.94
  -1   3   8    2.36    1.11
   1  -3  -8    2.30    1.19
  -1   3   8    2.29    1.49
   1  -3  -8    3.69    1.35
  -1   3   8    1.96    1.26
  -1   3   8    1.29    0.90
  -1   3   8    3.99    1.37
   1  -3  -8    4.54    1.62
  -1   3   8    2.68    1.11
  -1   3   8    0.38    0.85
  -1   3   7  109.69    6.28
   1  -3  -7  118.49    6.48
  -1   3   7  126.23    6.68
   1  -3  -7  102.86    6.44
   1  -3  -7  125.77    6.85
  -1   3   7  112.35    6.61
  -1   3   7  119.78    6.49
  -1   3   7  116.28    6.15
  -1   3   7  126.91    6.51
  -1   3   6   44.53    3.81
  -1   3   6   49.52    3.80
  -1   3   6   42.15    3.22
  -1   3   6   41.84    2.86
  -1   3   6   41.43    3.62
   1  -3  -6   39.95    3.49
  -1   3   6   43.65    3.45
   1  -3  -6   41.45    3.67
   1  -3  -6   43.37    3.70
  -1   3   6   47.34    3.65
  -1   3   5  232.36    8.77
  -1   3   5  230.48    8.46
   1  -3  -5  219.06    8.90
   1  -3  -5  232.27    8.32
   1  -3  -5  240.63    9.27
  -1   3   5  208.69    7.94
   1  -3  -5  221.53    8.94
  -1   3   5  232.38    8.69
  -1   3   5  228.22    9.23
  -1   3   5  233.50    9.10
  -1   3   5  231.12    9.22
  -1   3   4  151.59    6.23
   1  -3  -4  140.24    6.30
  -1   3   4  126.06    6.10
  -1   3   4  157.57    5.97
   1  -3  -4  167.19    7.00
  -1   3   4  143.83    6.79
  -1   3   4  145.82    6.09
  -1   3   3    1.36    0.79
  -1   3   3    1.19    0.55
  -1   3   3    1.35    0.72
  -1   3   3    1.63    0.65
   1  -3  -3    0.21    0.52
  -1   3   3    1.56    0.76
   1  -3  -3    0.65    0.77
  -1   3   2  158.34    4.80
  -1   3   2  133.97    5.98
   1  -3  -2  153.08    5.84
  -1   3   2  151.36    5.73
  -1   3   2  155.81    6.42
  -1   3   2  158.99    6.30
   1  -3  -2  154.81    6.56
  -1   3   1  471.40   12.96
  -1   3   1  469.17   13.94
  -1   3   1  437.19   13.65
   1  -3  -1  482.94   13.22
  -1   3   1  477.28   11.85
  -1   3   1  445.56   13.70
   1  -3  -1  485.76   14.34
  -1   3   0  327.51   10.59
  -1   3   0  339.23   10.72
  -1   3   0  326.04    9.56
   1  -3   0  311.85   10.87
   1  -3   0  333.97    9.99
  -1   3   0  327.38    9.66
  -1   3   0  339.09   10.80
   1  -3   1   22.47    2.03
  -1   3  -1   25.79    2.47
  -1   3  -1   24.83    2.13
   1  -3   1   25.44    2.12
  -1   3  -1   25.21    2.26
   1  -3   1   23.35    2.42
  -1   3  -2  255.52    9.85
  -1   3  -2  265.18    9.19
   1  -3   2  288.16    9.49
   1  -3   2  267.24    9.22
  -1   3  -2  284.66    9.82
   1  -3   2  268.60    9.52
   1  -3   2  271.70   10.15
   1  -3   3   17.82    2.10
   1  -3   3   20.27    2.31
  -1   3  -3   19.72    2.40
   1  -3   3   19.89    2.43
  -1   3  -3   21.07    2.01
   1  -3   3   21.51    2.39
   1  -3   3   17.88    2.12
   1  -3   3   20.78    2.00
  -1   3  -3   18.98    2.37
   1  -3   4   57.53    4.58
   1  -3   4   61.82    4.29
   1  -3   4   60.01    4.47
  -1   3  -4   56.06    4.51
   1  -3   4   52.02    4.15
  -1   3  -4   59.38    4.60
  -1   3  -4   65.80    5.00
  -1   3  -5   70.58    5.54
   1  -3   5   67.60    4.96
  -1   3  -5   77.71    5.73
   1  -3   5   76.85    5.49
  -1   3  -5   69.06    4.36
   1  -3   5   69.12    4.90
  -1   3  -5   66.39    5.18
   1  -3   5   75.69    5.01
   1  -3   5   74.72    5.33
  -1   3  -6   15.79    2.71
  -1   3  -6   19.57    2.87
   1  -3   6   18.07    2.74
   1  -3   6   18.31    2.51
   1  -3   6   18.93    2.62
  -1   3  -6   17.33    2.79
   1  -3   6   15.28    2.46
   1  -3   6   21.56    2.89
   1  -3   7   68.95    5.05
  -1   3  -7   66.18    5.22
   1  -3   7   63.99    4.14
   1  -3   7   68.93    4.70
   1  -3   7   68.39    5.14
   1  -3   8  218.56    8.78
   1  -3   8  198.09    7.97
   1  -3   8  216.84    9.09
  -1   3  -8  194.53    8.78
   1  -3   9  111.38    5.27
   1  -3   9  110.92    4.70
   1  -3   9  118.32    5.14
  -1   3  -9  105.99    4.95
  -1   2  12   52.02    3.05
  -1   2  12   50.51    2.74
  -1   2  11    4.41    1.19
  -1   2  11    3.27    1.18
   1  -2 -11    3.27    0.95
  -1   2  11    4.12    1.05
  -1   2  10  218.13    9.53
  -1   2  10  189.24    9.15
  -1   2  10  200.47    8.93
   1  -2 -10  202.35    8.68
   1  -2  -9  181.39    8.53
  -1   2   9  176.11    7.66
  -1   2   9  155.92    8.55
  -1   2   9  177.24    8.76
  -1   2   9  170.47    8.67
   1  -2  -9  160.92    8.81
  -1   2   9  178.75    8.70
  -1   2   9  170.48    7.86
  -1   2   9  166.85    8.36
   1  -2  -9  170.01    8.36
  -1   2   8  173.67    7.85
   1  -2  -8  162.87    8.09
   1  -2  -8  168.44    8.24
  -1   2   8  165.27    7.92
  -1   2   8  177.60    8.58
  -1   2   8  183.26    8.68
  -1   2   8  171.64    8.37
  -1   2   8  166.88    8.23
  -1   2   8  162.75    8.54
   1  -2  -8  163.30    8.71
  -1   2   7   35.90    3.67
   1  -2  -7   34.49    3.37
  -1   2   7   37.65    3.49
  -1   2   7   38.66    3.45
  -1   2   7   30.98    2.85
  -1   2   7   38.27    3.49
  -1   2   7   41.69    3.65
  -1   2   7   37.29    3.42
   1  -2  -7   42.21    3.63
   1  -2  -7   35.80    3.51
  -1   2   7   38.81    3.24
   1  -2  -6  594.15   18.00
  -1   2   6  589.61   16.80
  -1   2   6  598.54   17.57
   1  -2  -6  606.11   17.66
  -1   2   6  599.74   17.59
  -1   2   6  565.84   16.98
  -1   2   6  591.67   17.28
  -1   2   6  545.90   17.31
   1  -2  -6  559.19   17.51
  -1   2   6  594.63   18.39
  -1   2   6  574.22   17.53
   1  -2  -5  668.53   19.61
  -1   2   5  701.69   17.97
  -1   2   5  670.93   19.22
  -1   2   5  704.80   19.43
   1  -2  -5  711.94   19.72
  -1   2   5  713.85   18.70
  -1   2   5  730.25   18.70
   1  -2  -4  182.48    7.00
  -1   2   4  186.43    6.58
   1  -2  -4  172.79    6.77
  -1   2   4  178.97    6.56
  -1   2   4  184.64    6.74
  -1   2   4  180.92    6.18
   1  -2  -3  136.61    5.38
  -1   2   3  154.75    5.50
  -1   2   3  149.39    5.59
  -1   2   3  139.56    5.25
  -1   2   3  146.33    5.21
   1  -2  -3  146.78    5.80
  -1   2   3  149.92    5.53
   1  -2  -2    3.51    0.81
  -1   2   2    4.51    0.67
  -1   2   2    2.97    0.79
  -1   2   2    3.42    0.82
  -1   2   2    4.59    0.90
   1  -2  -2    1.52    0.59
   1  -2  -1  233.63    6.93
  -1   2   1  254.72    6.30
  -1   2   1  243.79    6.10
  -1   2   1  228.86    7.46
   1  -2  -1  222.17    7.67
  -1   2   1  236.48    7.45
  -1   2   1  241.21    7.68
  -1   2   0    3.05    0.78
   1  -2   0    2.88    0.33
  -1   2   0    2.99    0.79
  -1   2   0    3.74    0.61
  -1   2   0    3.87    0.82
   1  -2   0    4.39    0.84
  -1   2  -1    0.16    0.53
   1  -2   1    0.17    0.62
   1  -2   1    0.40    0.30
   1  -2   1    0.23    0.48
  -1   2  -1    0.26    0.51
  -1   2  -1    0.36    0.55
   1  -2   2  684.98   17.75
  -1   2  -2  743.43   19.04
   1  -2   2  741.53   18.74
  -1   2  -2  703.83   18.17
   1  -2   2  696.94   18.93
  -1   2  -2  728.76   18.98
   1  -2   2  670.18   18.54
   1  -2   3  781.01   20.61
  -1   2  -3  808.37   21.88
   1  -2   3  751.64   21.32
   1  -2   3  783.73   21.46
   1  -2   3  775.28   20.10
  -1   2  -3  815.01   21.67
   1  -2   3  851.09   21.58
  -1   2  -3  821.72   20.19
   1  -2   4  436.29   13.61
   1  -2   4  454.46   14.24
   1  -2   4  419.09   14.17
   1  -2   4  445.78   14.75
   1  -2   4  461.01   14.41
  -1   2  -4  427.24   14.80
  -1   2  -4  467.30   14.90
  -1   2  -4  477.97   12.74
  -1   2  -5  116.77    6.87
  -1   2  -5  131.17    7.11
   1  -2   5  128.86    6.32
   1  -2   5  127.95    6.86
   1  -2   5  127.68    6.36
   1  -2   5  126.45    6.59
  -1   2  -5  116.24    5.77
   1  -2   5  133.57    6.82
   1  -2   5  130.84    6.85
  -1   2  -6   24.37    3.19
   1  -2   6   24.82    2.90
   1  -2   6   26.69    3.06
   1  -2   6   30.22    3.22
   1  -2   6   34.46    3.56
  -1   2  -6   30.57    3.55
   1  -2   6   28.17    3.28
   1  -2   6   28.14    3.00
   1  -2   7   54.55    4.66
  -1   2  -7   51.86    4.74
   1  -2   7   46.86    4.38
   1  -2   7   50.01    4.17
   1  -2   7   51.83    4.41
  -1   2  -7   52.54    4.93
   1  -2   7   48.58    4.38
  -1   2  -7   45.63    4.37
   1  -2   8    1.38    0.84
  -1   2  -8    1.84    1.16
   1  -2   8    3.12    1.23
   1  -2   8    4.43    1.68
   1  -2   9   30.82    3.20
  -1   2  -9   33.61    3.20
   1  -2   9   36.25    3.49
   1  -2   9   31.57    3.04
   1  -2  10   75.71    4.23
  -1   2 -10   80.26    4.37
   1  -2  10   72.24    3.64
  -1   2 -10   74.25    3.68
  -1   1  12    3.77    0.77
  -1   1  12    5.93    1.03
  -1   1  11  136.30    6.77
  -1   1  11  150.50    6.96
   1  -1 -11  142.53    6.08
  -1   1  11  150.30    6.85
  -1   1  10   18.90    2.63
  -1   1  10   19.47    2.64
   1  -1 -10   14.81    2.17
  -1   1  10   17.32    2.55
   1  -1  -9   15.71    2.48
  -1   1   9   13.69    2.40
  -1   1   9   15.66    2.14
   1  -1  -9   10.66    2.15
  -1   1   9   12.19    2.29
  -1   1   9   12.95    2.47
   1  -1  -9   15.56    2.39
  -1   1   9   15.89    2.21
  -1   1   8    6.57    1.55
  -1   1   8    8.66    1.77
  -1   1   8    8.83    1.71
   1  -1  -8    8.10    1.91
  -1   1   8    7.61    1.78
  -1   1   8   10.37    2.07
  -1   1   8    9.43    1.83
   1  -1  -8    7.81    1.68
  -1   1   8    7.18    1.81
   1  -1  -7    0.95    0.90
  -1   1   7    4.13    1.28
   1  -1  -7    0.83    0.77
  -1   1   7    0.09    0.99
  -1   1   7    1.28    0.88
  -1   1   7    3.69    1.24
  -1   1   7    1.38    0.86
  -1   1   7    0.79    0.85
  -1   1   7    1.95    1.11
  -1   1   7    1.78    0.70
  -1   1   7    3.77    1.26
  -1   1   7    2.05    1.00
   1  -1  -6  455.93   12.82
  -1   1   6  442.33   14.05
  -1   1   6  443.49   14.61
  -1   1   6  418.35   13.81
  -1   1   6  433.35   13.93
  -1   1   6  421.92   13.71
  -1   1   6  433.61   12.88
   1  -1  -6  424.07   14.09
   1  -1  -5  299.93    8.83
  -1   1   5  309.54    9.99
   1  -1  -5  290.76   10.06
  -1   1   5  325.96   10.06
  -1   1   5  280.90    8.94
  -1   1   5  298.91    9.97
   1  -1  -4  266.39    8.83
  -1   1   4  283.04    8.90
  -1   1   4  284.68    7.65
  -1   1   4  279.51    8.88
  -1   1   4  279.14    8.66
   1  -1  -4  271.08    7.64
  -1   1   4  286.49    8.04
   1  -1  -3   -0.10    0.56
   1  -1  -3    0.25    0.20
  -1   1   3   -0.16    0.41
  -1   1   3    0.21    0.41
  -1   1   3    0.45    0.37
  -1   1   3   -0.09    0.50
   1  -1  -2  835.59   20.85
  -1   1   2  895.42   20.92
  -1   1   2  875.61   21.05
  -1   1   2  856.43   20.81
  -1   1   2  884.39   20.94
  -1   1   1  168.44    4.94
  -1   1   1  176.48    4.76
   1  -1  -1  161.43    4.71
   1  -1   0  418.54   10.08
  -1   1   0  438.91   10.75
  -1   1   0  443.31   10.42
   1  -1   1   62.85    2.69
   1  -1   1   60.10    2.65
  -1   1  -1   58.23    2.49
  -1   1  -1   57.67    2.52
  -1   1  -1   59.68    2.59
   1  -1   2   86.96    3.59
  -1   1  -2   83.48    3.14
   1  -1   2   78.99    2.41
  -1   1  -2   85.72    3.68
  -1   1  -3  146.17    5.72
  -1   1  -3  147.81    4.60
   1  -1   3  129.55    5.37
   1  -1   3  138.60    5.40
   1  -1   3  132.11    4.13
  -1   1  -3  135.40    4.37
   1  -1   3  138.48    5.19
   1  -1   3  133.60    5.33
   1  -1   4    1.93    0.95
  -1   1  -4    1.45    0.78
   1  -1   4    2.53    0.96
   1  -1   4    1.98    0.77
   1  -1   4    1.40    0.48
  -1   1  -4    2.87    0.69
   1  -1   4    2.49    0.86
   1  -1   5  298.68   10.91
  -1   1  -5  322.33   11.59
  -1   1  -5  318.07   11.56
   1  -1   5  306.39   11.22
   1  -1   5  334.00   11.36
   1  -1   5  309.29   11.00
  -1   1  -5  302.86    9.76
   1  -1   5  285.67   10.87
   1  -1   5  328.84    9.43
   1  -1   5  316.09   10.81
   1  -1   6  123.27    6.52
   1  -1   6  125.41    6.72
   1  -1   6  131.19    6.96
   1  -1   6  131.68    6.92
   1  -1   6  133.44    6.96
   1  -1   6  129.65    6.84
  -1   1  -6  119.19    5.77
  -1   1  -6  125.16    6.97
  -1   1  -6  126.88    7.08
  -1   1  -6  139.43    6.00
   1  -1   6  133.14    6.57
  -1   1  -7   21.02    3.04
  -1   1  -7   27.07    2.68
   1  -1   7   22.22    2.91
   1  -1   7   22.13    2.92
   1  -1   7   21.78    2.70
   1  -1   7   27.89    3.29
  -1   1  -7   21.57    3.04
   1  -1   7   22.59    2.98
   1  -1   7   22.84    2.79
   1  -1   8   54.25    4.43
  -1   1  -8   63.23    5.42
   1  -1   8   63.92    5.03
  -1   1  -8   60.51    4.94
   1  -1   8   54.37    4.74
   1  -1   8   55.06    4.72
  -1   1  -9    8.78    1.79
   1  -1   9    8.42    1.94
   1  -1   9   10.21    2.05
   1  -1   9   10.02    2.00
   1  -1  10   -0.27    0.74
   1  -1  10   -1.05    0.93
  -1   1 -10    1.07    1.00
   1  -1  10   -0.05    0.54
  -1   1 -10    1.77    0.92
   1  -1  10   -0.80    0.89
  -1   1 -11    7.33    1.25
   1  -1  11    6.88    1.20
  -1   0  12   66.77    3.06
  -1   0  12   60.95    2.93
  -1   0  11  229.76    8.75
   1   0 -11  211.84    7.70
  -1   0  11  220.50    8.60
   1   0 -10   10.66    1.91
  -1   0  10   13.58    1.98
  -1   0  10   14.55    1.99
  -1   0  10   14.41    2.31
  -1   0  10   13.06    2.20
  -1   0  10    8.64    1.80
  -1   0   9  157.04    7.68
   1   0  -9  167.86    8.34
  -1   0   9  160.43    8.64
   1   0  -9  154.65    8.44
  -1   0   9  164.28    7.90
  -1   0   9  157.24    8.34
  -1   0   8 1097.81   31.78
   1   0  -8 1117.09   30.74
  -1   0   8 1132.43   30.61
  -1   0   8 1078.52   30.69
   1   0  -8 1131.75   31.73
  -1   0   8 1086.53   29.49
  -1   0   8 1145.40   31.96
  -1   0   8 1117.26   31.45
   1   0  -7  251.63   10.31
  -1   0   7  242.05   10.10
  -1   0   7  252.21    9.44
  -1   0   7  248.48   10.51
  -1   0   7  258.89   10.32
   1   0  -7  230.08    9.47
  -1   0   7  227.58    9.33
  -1   0   7  270.95   10.46
  -1   0   7  216.59    9.57
  -1   0   7  244.73   10.34
  -1   0   7  239.53    9.60
  -1   0   6  140.20    6.57
  -1   0   6  148.65    6.88
  -1   0   6  144.20    7.07
  -1   0   6  132.47    6.53
  -1   0   6  150.27    6.55
  -1   0   6  149.13    6.52
   1   0  -6  144.48    6.42
  -1   0   6  134.74    6.63
  -1   0   6  150.70    6.60
  -1   0   6  149.41    7.00
  -1   0   6  157.47    7.04
   1   0  -6  147.20    6.84
  -1   0   5  537.33   15.67
  -1   0   5  541.94   15.53
  -1   0   5  508.98   15.28
   1   0  -5  545.13   15.60
  -1   0   5  513.00   15.24
   1   0  -5  522.40   14.92
  -1   0   5  526.96   15.05
  -1   0   4 1711.54   38.59
  -1   0   4 1679.40   41.23
  -1   0   4 1771.33   41.07
   1   0  -4 1766.11   40.89
  -1   0   4 1803.78   41.46
  -1   0   4 1708.95   41.30
  -1   0   4 1683.03   41.40
   1   0  -4 1766.94   41.42
  -1   0   3  807.48   18.42
  -1   0   3  808.89   19.97
  -1   0   3  784.90   19.78
   1   0  -3  759.59   19.28
   1   0  -3  771.06   19.74
   1   0  -2   22.66    1.28
  -1   0   2   22.38    1.51
  -1   0   2   21.96    1.16
  -1   0   2   24.58    1.58
  -1   0   2   24.21    1.24
  -1   0   1 1593.13   34.58
  -1   0   1 1441.51   34.31
  -1   0   0  178.37    4.22
   1   0   0  173.31    4.71
  -1   0   0  185.36    5.02
  -1   0  -1 3711.68   85.67
  -1   0  -1 3907.44   85.47
   1   0   1 3883.65   85.21
  -1   0  -1 3866.03   84.72
  -1   0  -2  114.91    3.46
  -1   0  -2  107.22    3.29
   1   0   2  112.15    3.42
  -1   0  -2  110.47    3.28
  -1   0  -3  839.00   19.68
   1   0   3  842.70   21.13
  -1   0  -3  871.32   20.42
  -1   0  -3  859.38   21.42
   1   0   4 1257.66   31.08
  -1   0  -4 1317.16   30.31
   1   0   4 1267.08   29.04
  -1   0  -4 1282.39   31.46
   1   0   4 1212.86   30.89
   1   0   4 1216.25   30.07
   1   0   4 1261.93   30.99
  -1   0  -5  831.57   21.05
   1   0   5  809.82   21.68
   1   0   5  817.36   20.74
   1   0   5  823.13   21.93
   1   0   5  758.95   20.55
  -1   0  -5  869.39   22.47
   1   0   5  787.86   21.68
   1   0   5  765.45   21.51
   1   0   6   33.76    3.09
   1   0   6   39.18    3.41
   1   0   6   34.45    2.68
   1   0   6   39.19    3.20
  -1   0  -6   39.65    3.51
  -1   0  -6   36.33    3.33
   1   0   6   39.34    3.31
   1   0   6   39.03    3.41
  -1   0  -6   41.74    3.08
   1   0   6   37.41    3.26
  -1   0  -7   56.68    4.54
   1   0   7   49.44    3.64
   1   0   7   65.20    4.75
   1   0   7   52.82    4.14
   1   0   7   59.79    4.48
   1   0   7   58.38    4.63
  -1   0  -7   55.18    4.59
   1   0   7   46.64    4.16
   1   0   7   54.96    4.31
  -1   0  -7   52.78    3.88
   1   0   8  171.37    8.94
   1   0   8  178.43    9.02
   1   0   8  195.98    9.43
  -1   0  -8  186.95    9.08
   1   0   8  192.11    9.15
   1   0   8  185.73    8.05
  -1   0  -8  183.59    8.42
  -1   0  -8  186.90    9.58
   1   0   9  109.20    6.81
  -1   0  -9  113.56    6.68
   1   0   9  114.30    7.10
   1   0   9  106.43    6.65
   1   0   9  113.04    6.96
  -1   0  -9   99.29    6.90
   1   0   9  106.41    6.01
   1   0   9  106.19    6.98
  -1   0 -10   28.59    2.91
   1   0  10   30.64    3.51
   1   0  10   25.95    3.11
  -1   0 -10   29.13    3.38
   1   0  10   28.27    2.61
   1   0  10   27.03    3.06
   1   0  10   31.11    3.25
   1   0  11   25.15    2.37
   1   0  11   21.72    2.45
  -1   0 -11   21.49    2.49
   1   0  11   26.08    2.56
   1   0  12   18.67    1.59
  -1   0 -12   17.41    1.55
   1   0  12   18.18    1.56
  -1  -1  11   40.66    2.75
  -1  -1  11   34.89    2.57
  -1  -1  11   37.69    2.71
  -1  -1  11   28.65    1.92
   1   1 -11   32.77    2.19
   1   1 -10   58.00    4.06
  -1  -1  10   68.78    4.62
  -1  -1  10   59.54    4.34
  -1  -1  10   53.67    3.84
  -1  -1   9   57.28    4.54
  -1  -1   9   66.92    5.13
  -1  -1   9   56.72    4.67
  -1  -1   9   59.82    4.64
   1   1  -8  289.77   11.84
  -1  -1   8  296.21   11.86
  -1  -1   8  285.08   12.08
   1   1  -8  267.28   11.61
  -1  -1   8  283.21   11.67
  -1  -1   8  266.42   11.47
  -1  -1   8  288.70   10.66
  -1  -1   8  263.35   11.61
  -1  -1   7   94.15    6.00
  -1  -1   7   95.68    5.91
  -1  -1   7   87.27    5.72
  -1  -1   7   87.36    5.91
  -1  -1   7   92.17    5.35
  -1  -1   7   98.45    5.81
   1   1  -7   92.19    5.87
  -1  -1   7   99.04    6.09
   1   1  -7   98.88    6.02
   1   1  -6   51.70    3.88
  -1  -1   6   50.18    3.87
   1   1  -6   45.92    3.77
  -1  -1   6   47.70    3.87
  -1  -1   6   48.63    3.59
  -1  -1   6   53.23    4.16
  -1  -1   6   49.05    3.71
  -1  -1   6   49.27    3.83
  -1  -1   5   48.61    3.52
  -1  -1   5   49.31    3.55
   1   1  -5   47.53    3.41
   1   1  -5   49.11    3.55
  -1  -1   5   50.49    3.67
  -1  -1   5   53.33    3.59
  -1  -1   4   33.08    2.63
  -1  -1   4   36.34    2.65
   1   1  -4   34.45    2.69
  -1  -1   4   34.43    2.61
   1   1  -3 1898.80   46.38
  -1  -1   3 1945.99   46.30
  -1  -1   3 2000.36   44.58
  -1  -1   3 1866.36   46.39
  -1  -1   3 2076.86   46.68
   1   1  -2  141.37    5.04
  -1  -1   2  152.97    4.39
  -1  -1   2  148.41    5.10
   1   1  -2  149.04    3.87
  -1  -1   1 1699.56   38.66
  -1  -1   1 1689.05   38.49
  -1  -1   0 1219.09   27.04
   1   1   0 1157.53   26.75
  -1  -1   0 1149.24   27.14
   1   1   1   58.47    1.95
  -1  -1  -1   66.40    2.36
  -1  -1  -1   68.42    2.26
   1   1   1   56.87    1.87
  -1  -1  -1   57.96    2.19
  -1  -1  -2  783.24   18.63
  -1  -1  -2  779.99   18.46
  -1  -1  -2  768.39   18.72
   1   1   2  766.62   18.61
  -1  -1  -2  803.57   17.76
  -1  -1  -3 1055.67   25.83
   1   1   3 1118.91   25.56
  -1  -1  -3 1071.85   26.26
   1   1   3 1074.82   25.93
  -1  -1  -3 1097.37   25.20
   1   1   4   98.90    3.47
  -1  -1  -4   89.56    3.92
   1   1   4   99.93    4.13
   1   1   4   85.27    3.95
  -1  -1  -4   89.90    4.19
   1   1   4   84.19    3.92
  -1  -1  -4  102.40    2.97
   1   1   5    6.47    1.13
   1   1   5    7.01    1.22
   1   1   5    6.19    1.08
   1   1   5    7.05    0.83
  -1  -1  -5    6.43    1.25
  -1  -1  -5    7.19    1.19
   1   1   5    7.09    1.11
   1   1   5    6.68    1.30
   1   1   6  123.55    5.73
   1   1   6  113.99    5.72
   1   1   6  123.69    5.84
   1   1   6  133.99    6.41
   1   1   6  114.62    5.77
  -1  -1  -6  128.34    5.82
  -1  -1  -6  117.45    5.93
   1   1   6  113.22    5.36
   1   1   6  111.78    5.20
   1   1   7    6.40    1.49
   1   1   7    3.97    1.34
   1   1   7    3.93    1.30
   1   1   7    4.83    1.40
   1   1   7    3.40    1.11
   1   1   7    2.83    0.96
  -1  -1  -7    2.52    1.04
  -1  -1  -7    3.00    1.25
  -1  -1  -7    5.41    1.27
   1   1   7    4.76    1.24
   1   1   8  129.57    7.49
   1   1   8  127.22    6.68
   1   1   8  132.09    7.25
  -1  -1  -8  130.08    7.04
  -1  -1  -8  141.84    7.27
   1   1   8  122.53    7.04
   1   1   8  125.43    7.29
   1   1   8  135.70    6.64
  -1  -1  -8  131.86    7.35
   1   1   8  134.03    7.04
  -1  -1  -9   81.37    5.89
   1   1   9   80.99    5.53
  -1  -1  -9   78.16    5.39
  -1  -1  -9   80.42    5.56
   1   1   9   86.49    5.97
   1   1   9   79.48    5.32
   1   1   9   88.94    6.26
  -1  -1  -9   87.47    6.28
   1   1   9   91.37    6.16
   1   1   9   90.90    6.19
   1   1  10   81.14    5.32
   1   1  10   73.29    5.36
   1   1  10   75.58    5.45
  -1  -1 -10   68.29    5.44
  -1  -1 -10   77.49    4.81
   1   1  10   67.93    5.37
   1   1  11  114.86    5.89
   1   1  11  112.98    6.37
  -1  -1 -11  117.33    6.45
   1   1  11  110.40    5.86
   1   1  11  109.79    6.17
   1   1  12   36.73    2.61
  -1  -1 -12   41.70    2.89
   1   1  12   32.95    2.49
  -1  -2  10   23.93    2.30
   1   2 -10   19.10    2.00
  -1  -2  10   22.17    2.26
  -1  -2  10   23.27    2.17
  -1  -2   9    0.09    0.78
  -1  -2   9    0.70    1.21
  -1  -2   9    0.53    0.84
   1   2  -8   12.46    2.22
  -1  -2   8   13.87    2.46
  -1  -2   8   11.87    2.30
  -1  -2   8   10.63    2.06
   1   2  -8   11.22    2.38
  -1  -2   8   10.36    1.79
  -1  -2   8   15.03    2.50
   1   2  -7 1116.83   30.40
  -1  -2   7 1104.88   31.17
  -1  -2   7 1041.94   30.38
  -1  -2   7 1108.53   30.44
  -1  -2   7 1092.20   28.99
  -1  -2   7 1065.34   30.82
  -1  -2   7 1090.52   29.59
   1   2  -7 1004.18   30.79
   1   2  -7 1052.43   29.67
  -1  -2   6 1069.30   30.51
   1   2  -6 1102.28   29.93
  -1  -2   6 1058.88   30.50
  -1  -2   6 1124.05   30.64
   1   2  -6 1067.25   29.73
  -1  -2   6 1134.59   30.33
  -1  -2   6 1059.85   29.04
  -1  -2   6 1067.97   29.16
   1   2  -6 1047.46   30.56
  -1  -2   6 1164.37   30.29
  -1  -2   6 1093.68   29.60
  -1  -2   5   57.07    4.04
  -1  -2   5   63.05    4.45
  -1  -2   5   58.40    3.86
  -1  -2   5   56.06    3.93
   1   2  -5   50.05    3.82
  -1  -2   5   61.68    4.15
  -1  -2   5   59.80    3.91
   1   2  -5   57.13    4.27
  -1  -2   5   52.85    3.99
  -1  -2   5   56.48    4.16
  -1  -2   4    3.93    1.40
  -1  -2   4    3.28    1.22
  -1  -2   4    3.22    1.26
   1   2  -4    1.15    1.12
  -1  -2   3  968.48   24.83
  -1  -2   3  944.38   22.78
  -1  -2   3  951.24   24.47
   1   2  -3  891.75   24.60
  -1  -2   3  952.48   24.40
  -1  -2   2    9.18    1.26
   1   2  -2   10.41    1.38
  -1  -2   2   11.32    1.29
  -1  -2   2   12.16    1.37
   1   2  -2   13.27    0.91
  -1  -2   2    9.82    1.06
   1   2  -1  767.31   18.46
  -1  -2   1  770.21   19.07
   1   2   0  140.79    5.35
  -1  -2   0  162.54    5.53
  -1  -2  -1 2257.07   50.59
  -1  -2  -1 2177.60   51.29
   1   2   2 5679.88  125.31
  -1  -2  -2 5329.44  125.41
  -1  -2  -2 5662.59  124.52
  -1  -2  -3  980.22   25.13
  -1  -2  -3 1059.64   24.05
   1   2   3 1025.41   24.96
   1   2   3  990.14   24.94
   1   2   3 1037.20   24.37
  -1  -2  -3 1055.90   24.92
  -1  -2  -4    4.63    0.95
   1   2   4    5.22    0.90
  -1  -2  -4    4.66    0.67
   1   2   4    5.02    0.84
   1   2   4    3.89    0.81
  -1  -2  -4    4.85    0.76
   1   2   4    5.25    0.88
  -1  -2  -5 1423.46   35.38
   1   2   5 1489.04   34.30
   1   2   5 1409.11   34.91
   1   2   5 1375.64   34.76
  -1  -2  -5 1425.23   35.06
  -1  -2  -5 1433.88   33.75
  -1  -2  -5 1437.28   33.38
   1   2   5 1414.97   34.74
   1   2   6  172.44    7.06
  -1  -2  -6  186.62    6.34
  -1  -2  -6  179.49    7.99
   1   2   6  175.32    7.13
  -1  -2  -6  184.50    7.39
  -1  -2  -6  202.14    7.91
   1   2   6  176.95    7.28
   1   2   6  183.53    8.00
   1   2   6  190.13    6.35
   1   2   6  186.98    7.12
   1   2   7    9.16    1.86
   1   2   7    5.39    1.36
   1   2   7    7.07    1.48
   1   2   7    8.15    1.76
  -1  -2  -7    6.63    1.53
  -1  -2  -7    8.92    1.69
   1   2   7    6.96    1.38
  -1  -2  -7    6.25    1.35
   1   2   7    6.83    1.49
   1   2   7    5.05    1.24
  -1  -2  -7    7.40    1.58
   1   2   8   49.64    3.93
  -1  -2  -8   48.24    4.01
   1   2   8   53.61    4.44
   1   2   8   50.84    4.02
   1   2   8   49.94    4.25
  -1  -2  -8   56.95    4.79
   1   2   8   50.06    4.53
   1   2   8   50.52    4.52
  -1  -2  -8   46.32    3.98
   1   2   8   43.24    3.87
  -1  -2  -8   49.15    4.28
   1   2   9    6.40    1.63
   1   2   9   10.14    2.67
   1   2   9    4.02    1.87
   1   2   9   11.73    2.56
   1   2   9    5.27    1.74
  -1  -2  -9   10.15    2.50
   1   2   9    8.23    1.80
  -1  -2  -9    7.17    1.78
   1   2   9    9.46    2.36
  -1  -2  -9    6.83    1.97
  -1  -2 -10   22.31    3.16
  -1  -2 -10   21.62    3.01
   1   2  10   26.07    2.83
   1   2  10   23.93    3.06
   1   2  10   27.59    3.25
   1   2  10   25.95    3.36
   1   2  10   23.82    3.03
   1   2  10   23.48    3.09
  -1  -2 -11  127.40    7.05
   1   2  11  141.98    7.06
   1   2  11  131.27    6.96
   1   2  12   11.53    1.65
  -1  -2 -12   10.47    1.68
   1   2  12   13.15    1.58
   1   2  12   13.30    1.57
   1   2  12   12.21    1.60
  -1  -3  10   58.29    2.78
  -1  -3   9   20.56    2.22
  -1  -3   9   22.25    2.34
  -1  -3   9   22.03    2.09
  -1  -3   8   71.53    5.00
  -1  -3   8   69.89    3.93
  -1  -3   8   66.18    4.71
  -1  -3   8   67.53    4.89
  -1  -3   8   67.60    4.14
   1   3  -8   67.89    4.31
  -1  -3   8   70.38    4.65
  -1  -3   7  204.73    9.47
  -1  -3   7  205.28   10.01
   1   3  -7  195.50    9.06
  -1  -3   7  206.50    8.92
   1   3  -7  197.66    9.07
   1   3  -7  192.32    9.94
  -1  -3   7  199.70    8.56
  -1  -3   7  215.95    9.62
   1   3  -7  217.66   10.47
   1   3  -6   28.78    3.14
  -1  -3   6   29.61    3.37
   1   3  -6   22.97    3.23
  -1  -3   6   26.38    2.75
  -1  -3   6   22.87    2.90
  -1  -3   6   18.66    2.60
   1   3  -6   22.20    3.12
  -1  -3   6   22.26    2.85
   1   3  -6   13.54    2.37
  -1  -3   6   24.74    3.26
  -1  -3   5  217.10    9.02
   1   3  -5  193.80    9.44
  -1  -3   5  192.19    9.39
   1   3  -5  186.77    9.30
  -1  -3   5  191.97    8.82
   1   3  -5  202.63    9.13
  -1  -3   5  210.95    9.14
  -1  -3   5  199.52    8.41
  -1  -3   5  196.60    8.66
   1   3  -4   13.37    2.15
  -1  -3   4   14.45    2.17
   1   3  -4    9.42    1.89
  -1  -3   4   15.11    2.26
  -1  -3   4    8.59    1.40
  -1  -3   4   10.36    1.71
  -1  -3   3    4.04    1.14
  -1  -3   3    3.36    0.80
  -1  -3   3    2.08    0.87
   1   3  -3    4.27    1.30
   1   3  -3    3.33    1.21
  -1  -3   3    4.91    1.25
  -1  -3   3    3.03    0.93
  -1  -3   3    1.92    0.88
   1   3  -2  422.17   13.42
   1   3  -2  438.28   11.47
  -1  -3   2  416.83   12.19
  -1  -3   2  448.05   12.70
   1   3  -2  441.78   13.59
  -1  -3   2  425.88   13.44
   1   3  -1   26.71    2.36
  -1  -3   1   29.35    2.14
   1   3  -1   30.56    1.99
  -1  -3   1   32.12    2.50
   1   3  -1   29.72    2.45
  -1  -3   1   28.98    2.33
  -1  -3   1   28.66    2.27
  -1  -3   0  705.55   18.87
  -1  -3   0  692.71   18.57
   1   3   0  677.50   18.80
   1   3   0  742.34   18.42
  -1  -3   0  731.06   18.59
  -1  -3  -1   40.05    2.70
   1   3   1   39.67    2.46
  -1  -3  -1   35.92    2.25
  -1  -3  -1   35.54    2.35
   1   3   1   33.95    2.42
  -1  -3  -2  523.24   14.91
   1   3   2  554.41   14.84
  -1  -3  -2  547.42   14.22
  -1  -3  -2  542.08   14.74
  -1  -3  -2  547.97   15.09
   1   3   2  556.55   14.83
   1   3   2  518.61   14.72
  -1  -3  -3   26.79    2.04
  -1  -3  -3   23.33    1.67
   1   3   3   27.82    2.21
   1   3   3   21.45    1.89
  -1  -3  -3   25.11    2.17
  -1  -3  -3   23.32    2.08
   1   3   3   22.37    1.98
   1   3   4  138.65    5.77
  -1  -3  -4  138.20    6.04
  -1  -3  -4  149.51    5.82
   1   3   4  148.00    5.88
  -1  -3  -4  151.88    5.18
   1   3   4  137.02    5.79
  -1  -3  -4  148.98    5.63
   1   3   5   18.68    1.80
   1   3   5   23.80    2.21
  -1  -3  -5   25.65    2.50
  -1  -3  -5   20.65    1.87
  -1  -3  -5   25.32    2.09
  -1  -3  -5   24.37    1.82
   1   3   5   20.00    2.05
  -1  -3  -6    0.86    0.81
   1   3   6    2.99    0.88
   1   3   6    4.77    1.22
   1   3   6    2.53    1.14
  -1  -3  -6    5.54    0.94
   1   3   6    3.36    0.97
   1   3   6    5.36    1.46
  -1  -3  -6    2.54    1.02
  -1  -3  -6    4.95    1.02
  -1  -3  -6    2.46    1.19
   1   3   6    4.67    1.04
   1   3   6    5.79    1.27
  -1  -3  -7  131.77    7.03
  -1  -3  -7  134.16    6.32
   1   3   7  137.48    6.01
  -1  -3  -7  128.41    6.47
  -1  -3  -7  131.89    7.23
   1   3   7  122.88    5.98
   1   3   7  132.63    7.21
   1   3   7  132.74    6.67
   1   3   7  131.59    5.65
   1   3   7  132.02    7.15
   1   3   7  126.56    6.41
  -1  -3  -8   42.02    4.04
   1   3   8   41.60    4.07
   1   3   8   45.45    4.24
  -1  -3  -8   41.72    4.14
  -1  -3  -8   42.55    3.34
   1   3   8   41.75    3.78
   1   3   8   46.07    3.70
   1   3   8   43.96    3.73
   1   3   8   39.17    3.77
   1   3   8   37.58    3.18
   1   3   9   21.54    2.75
   1   3   9   25.40    2.91
   1   3   9   28.27    3.49
   1   3   9   24.59    3.03
  -1  -3  -9   20.82    3.08
   1   3   9   22.71    3.02
   1   3   9   25.96    2.61
  -1  -3  -9   20.42    3.06
   1   3  10   32.43    3.28
   1   3  10   20.23    2.84
   1   3  10   26.67    3.18
   1   3  10   31.16    3.48
  -1  -3 -10   30.55    3.56
  -1  -3 -10   33.29    3.81
   1   3  10   32.32    3.16
   1   3  10   29.06    3.13
  -1  -3 -11   63.03    4.74
  -1  -3 -11   62.46    4.26
   1   3  11   65.57    4.70
   1   3  11   60.85    3.87
   1   3  11   56.65    4.37
   1   3  11   61.82    4.16
   1   3  12    3.93    0.84
   1   3  12    5.90    1.17
  -1  -3 -12    4.45    1.08
  -1  -4   9   19.76    1.59
  -1  -4   8    6.10    1.22
  -1  -4   8    7.05    1.34
  -1  -4   8    5.75    0.98
   1   4  -8    6.69    1.14
  -1  -4   8    5.93    1.25
  -1  -4   7   63.38    4.64
  -1  -4   7   62.80    4.44
  -1  -4   7   57.89    3.95
  -1  -4   7   54.18    3.77
   1   4  -7   60.07    4.28
  -1  -4   7   58.89    4.33
   1   4  -6  485.95   17.80
   1   4  -6  490.31   17.75
  -1  -4   6  499.54   16.44
  -1  -4   6  474.40   16.56
  -1  -4   6  494.00   15.43
  -1  -4   6  499.46   16.82
  -1  -4   6  502.65   16.32
   1   4  -6  489.94   16.88
   1   4  -5 1312.84   36.48
  -1  -4   5 1253.53   35.05
  -1  -4   5 1316.23   34.20
   1   4  -5 1256.76   35.51
   1   4  -5 1303.67   36.67
  -1  -4   5 1289.79   35.21
  -1  -4   5 1291.63   34.92
   1   4  -5 1274.35   34.32
  -1  -4   4   21.97    2.75
  -1  -4   4   21.35    2.76
   1   4  -4   17.90    2.68
   1   4  -4   23.59    3.16
  -1  -4   4   25.73    2.77
  -1  -4   3  126.05    6.91
  -1  -4   3  142.19    7.12
  -1  -4   3  132.48    6.83
   1   4  -3  143.19    7.67
   1   4  -3  130.26    7.18
  -1  -4   2  180.78    8.10
   1   4  -2  182.39    8.25
  -1  -4   2  181.45    7.99
  -1  -4   2  172.66    7.89
  -1  -4   2  181.05    7.85
  -1  -4   2  194.94    7.80
  -1  -4   2  180.50    7.19
   1   4  -2  174.11    8.25
   1   4  -1    4.40    1.22
  -1  -4   1    2.89    1.01
  -1  -4   1    2.68    1.05
  -1  -4   1    6.46    1.22
  -1  -4   1    5.27    1.31
  -1  -4   1    4.31    1.16
   1   4  -1    4.82    1.21
  -1  -4   1    5.36    1.21
   1   4  -1    5.86    1.11
  -1  -4   1    6.16    1.41
   1   4   0  219.74    7.89
  -1  -4   0  210.51    8.09
   1   4   0  222.62    8.33
  -1  -4   0  214.15    8.27
  -1  -4   0  224.76    8.74
   1   4   0  217.83    8.64
   1   4   1  285.19    9.71
   1   4   1  292.99   10.18
  -1  -4  -1  277.36    9.74
  -1  -4  -1  284.83    9.63
  -1  -4  -1  286.96   10.33
   1   4   2  627.95   17.47
  -1  -4  -2  584.37   17.24
   1   4   2  620.73   17.32
  -1  -4  -2  613.45   16.90
  -1  -4  -2  605.22   17.93
   1   4   2  596.05   17.50
  -1  -4  -3 2680.24   65.89
   1   4   3 2715.04   65.39
  -1  -4  -3 2835.86   64.84
   1   4   3 2725.20   65.63
  -1  -4  -3 2775.61   65.57
  -1  -4  -3 2925.62   66.47
   1   4   3 2718.44   65.66
  -1  -4  -4 1602.72   39.09
   1   4   4 1724.80   40.50
  -1  -4  -4 1620.29   39.95
   1   4   4 1635.36   40.11
   1   4   4 1595.32   40.31
   1   4   4 1563.64   40.72
  -1  -4  -4 1557.13   40.55
  -1  -4  -4 1664.95   40.73
  -1  -4  -4 1531.57   40.74
  -1  -4  -4 1607.11   40.82
   1   4   5   73.28    4.41
  -1  -4  -5   64.57    4.11
  -1  -4  -5   71.77    4.71
   1   4   5   70.54    4.37
  -1  -4  -5   68.94    4.09
   1   4   5   63.74    4.56
  -1  -4  -5   76.12    4.52
  -1  -4  -5   68.84    4.68
  -1  -4  -5   65.81    4.69
  -1  -4  -5   64.68    3.65
   1   4   6  110.46    6.04
  -1  -4  -6  127.23    6.95
   1   4   6  138.16    6.47
  -1  -4  -6  126.98    5.80
  -1  -4  -6  123.77    5.44
  -1  -4  -6  122.97    6.08
  -1  -4  -6  135.17    6.16
  -1  -4  -6  134.84    7.05
   1   4   6  118.05    6.10
  -1  -4  -6  123.88    6.84
   1   4   6  125.00    6.89
   1   4   7   97.66    5.76
  -1  -4  -7  105.30    5.62
   1   4   7   96.08    6.25
   1   4   7   95.88    5.66
   1   4   7   95.09    5.31
  -1  -4  -7   95.98    6.11
  -1  -4  -7   98.01    6.33
  -1  -4  -7  102.51    6.43
  -1  -4  -8    6.68    1.40
  -1  -4  -8    5.98    1.66
   1   4   8    7.65    1.83
   1   4   8    8.14    2.04
  -1  -4  -8    7.28    2.02
   1   4   8    6.78    1.50
   1   4   8    5.11    1.46
  -1  -4  -8    7.11    1.76
   1   4   9   13.69    2.21
   1   4   9   13.85    2.32
  -1  -4  -9   12.85    2.33
  -1  -4  -9   13.72    2.57
   1   4   9   15.01    2.55
   1   4   9   15.36    2.65
  -1  -4  -9   17.38    2.84
  -1  -4 -10    1.29    0.88
  -1  -4 -10    1.05    0.95
   1   4  10    2.18    1.22
   1   4  10   -0.79    1.00
   1   4  11   54.05    3.86
   1   4  11   54.58    4.10
   1   4  11   55.33    4.14
  -1  -4 -11   49.64    3.79
  -1  -4 -11   52.77    4.17
  -1  -4 -12  262.26    9.17
   1   4  12  280.83    9.07
  -1  -5   7   11.12    1.38
  -1  -5   7   16.03    1.78
   1   5  -7   16.16    1.69
  -1  -5   7   12.87    1.58
  -1  -5   7   12.12    1.32
  -1  -5   7   12.71    1.35
   1   5  -6   11.90    1.85
  -1  -5   6   16.12    2.13
  -1  -5   6   12.54    1.94
  -1  -5   6   10.86    1.82
  -1  -5   6   12.70    1.85
  -1  -5   6   12.57    1.81
   1   5  -5   44.64    4.08
  -1  -5   5   53.05    4.15
  -1  -5   5   51.04    4.10
  -1  -5   5   46.07    3.43
  -1  -5   5   44.54    3.84
  -1  -5   5   44.72    3.92
  -1  -5   4  424.65   14.24
   1   5  -4  426.25   16.18
  -1  -5   4  414.23   14.70
   1   5  -4  420.16   15.76
  -1  -5   4  407.37   14.88
   1   5  -3    7.74    1.88
  -1  -5   3    9.39    1.83
  -1  -5   3    9.10    1.97
   1   5  -3    8.45    2.03
  -1  -5   3    8.32    1.68
  -1  -5   3   12.05    2.09
  -1  -5   2   39.62    3.75
  -1  -5   2   35.41    3.55
   1   5  -2   32.60    3.53
  -1  -5   2   34.64    3.33
  -1  -5   2   35.34    3.63
  -1  -5   2   39.64    3.26
  -1  -5   2   36.90    3.47
   1   5  -2   35.86    3.91
   1   5  -1    9.94    2.05
  -1  -5   1   10.52    2.01
  -1  -5   1    9.57    1.73
   1   5  -1   10.87    1.68
   1   5  -1    9.15    1.72
  -1  -5   1   10.17    1.90
  -1  -5   1   12.62    1.98
  -1  -5   1   11.25    2.00
  -1  -5   1   11.66    2.15
  -1  -5   0  312.12   11.32
  -1  -5   0  299.68   11.27
  -1  -5   0  293.22   11.58
  -1  -5   0  289.89   10.94
  -1  -5   0  303.51   10.98
   1   5   0  317.54   11.28
  -1  -5   0  312.28   11.70
  -1  -5   0  317.60   12.07
   1   5   0  298.61   10.66
  -1  -5  -1  455.57   15.75
  -1  -5  -1  508.30   15.76
   1   5   1  465.36   15.12
   1   5   1  483.94   15.20
   1   5   1  454.34   15.49
  -1  -5  -1  468.38   15.47
  -1  -5  -1  464.38   14.86
  -1  -5  -1  461.48   15.30
  -1  -5  -1  508.51   16.59
   1   5   1  466.41   14.73
  -1  -5  -1  453.37   14.71
   1   5   1  487.78   16.10
  -1  -5  -2   12.00    1.79
  -1  -5  -2   10.06    1.83
  -1  -5  -2   11.15    1.93
  -1  -5  -2    9.74    1.78
   1   5   2   12.59    1.98
  -1  -5  -2   13.43    1.83
   1   5   2    9.06    1.75
   1   5   2   10.34    1.89
   1   5   2   12.01    1.63
   1   5   2   11.16    1.81
  -1  -5  -2   10.71    2.00
  -1  -5  -2   11.96    1.83
  -1  -5  -2   10.73    1.97
   1   5   3  379.58   13.35
  -1  -5  -3  369.97   13.52
  -1  -5  -3  369.86   12.31
   1   5   3  352.94   13.15
   1   5   3  378.07   12.59
   1   5   3  375.84   12.90
   1   5   3  379.36   13.12
  -1  -5  -3  357.18   13.04
  -1  -5  -3  383.52   14.00
  -1  -5  -3  371.38   13.59
  -1  -5  -3  388.05   12.74
   1   5   4  104.50    6.09
  -1  -5  -4  119.39    6.65
   1   5   4  113.19    6.24
   1   5   4  104.23    6.22
   1   5   4   98.90    4.89
   1   5   4   98.31    5.60
  -1  -5  -4  112.38    6.21
  -1  -5  -4  117.06    6.70
  -1  -5  -4  106.22    5.52
  -1  -5  -4  102.08    6.23
   1   5   4  107.40    5.91
   1   5   5   25.16    2.84
  -1  -5  -5   27.05    3.14
  -1  -5  -5   28.21    2.71
  -1  -5  -5   29.86    3.26
   1   5   5   29.72    3.30
  -1  -5  -5   24.11    3.10
   1   5   5   23.79    2.80
   1   5   5   26.59    2.89
   1   5   5   22.60    2.88
   1   5   5   24.47    2.37
  -1  -5  -5   29.84    3.08
  -1  -5  -5   23.74    2.99
  -1  -5  -6   37.30    3.84
   1   5   6   34.51    3.66
   1   5   6   29.35    3.13
   1   5   6   35.50    3.49
  -1  -5  -6   31.10    3.57
   1   5   6   33.03    3.05
   1   5   6   36.41    3.42
  -1  -5  -6   33.49    3.16
  -1  -5  -6   29.05    3.39
  -1  -5  -6   33.23    3.33
   1   5   7   25.30    3.02
  -1  -5  -7   19.55    2.86
  -1  -5  -7   27.90    2.72
  -1  -5  -7   24.06    3.15
   1   5   7   23.52    3.14
   1   5   7   22.45    2.73
  -1  -5  -7   21.34    3.00
   1   5   7   21.13    2.63
   1   5   8   28.50    2.98
   1   5   8   22.18    2.86
  -1  -5  -8   25.83    3.42
  -1  -5  -8   21.25    2.96
   1   5   8   21.66    2.66
  -1  -5  -8   19.60    2.92
   1   5   8   25.78    3.35
   1   5   8   28.33    3.16
  -1  -5  -9   33.35    3.66
   1   5   9   28.60    3.15
  -1  -5  -9   28.95    3.49
   1   5   9   31.05    3.43
   1   5   9   29.02    3.38
   1   5   9   28.28    3.19
  -1  -5  -9   27.02    3.49
   1   5   9   23.83    2.51
   1   5  10    1.17    0.89
  -1  -5 -10    1.86    1.05
   1   5  10    1.80    1.06
   1   5  10    1.96    0.95
  -1  -5 -10    2.19    1.13
   1   5  10    1.63    0.81
   1   5  11   -0.51    0.64
   1   5  11   -0.12    0.61
  -1  -5 -11    0.81    0.81
   1   5  11    0.68    0.67
  -1  -5 -11    0.93    0.82
   1   5  11    1.81    1.01
   1   5  12   77.70    3.53
   1   5  12   74.45    3.66
  -1  -5 -12   71.57    3.44
  -1  -6   6   16.57    1.46
   1   6  -6   17.49    1.52
  -1  -6   6   18.35    1.47
   1   6  -5   34.02    2.86
  -1  -6   5   32.25    2.54
  -1  -6   5   28.87    2.49
  -1  -6   5   33.90    2.68
  -1  -6   5   33.38    2.67
  -1  -6   5   32.33    2.53
  -1  -6   4  572.95   17.41
  -1  -6   4  581.13   17.57
  -1  -6   4  556.09   16.96
   1   6  -4  554.22   17.86
  -1  -6   4  582.98   17.52
  -1  -6   3  152.60    7.01
  -1  -6   3  138.85    6.93
  -1  -6   3  164.96    7.87
  -1  -6   2    1.32    1.03
   1   6  -2   -0.72    1.10
   1   6  -2    1.60    0.90
  -1  -6   2    0.05    0.73
  -1  -6   2    1.80    1.11
  -1  -6   2    1.02    1.20
   1   6  -2    0.44    0.74
   1   6  -1   42.57    3.69
  -1  -6   1   46.90    3.79
  -1  -6   1   42.43    3.68
   1   6  -1   41.71    4.25
  -1  -6   1   41.26    3.79
  -1  -6   1   41.77    3.99
   1   6  -1   39.95    3.73
  -1  -6   1   47.72    4.11
  -1  -6   1   43.54    4.05
  -1  -6   0   40.76    4.15
  -1  -6   0   41.65    3.82
  -1  -6   0   37.61    3.42
   1   6   0   36.07    3.41
  -1  -6   0   45.45    3.84
  -1  -6   0   41.98    4.03
  -1  -6   0   41.06    3.82
   1   6   0   35.46    3.95
   1   6   1    1.45    1.17
  -1  -6  -1    0.52    0.71
  -1  -6  -1   -1.09    0.81
   1   6   1    0.55    0.78
  -1  -6  -1    2.04    1.06
   1   6   1    1.15    0.99
  -1  -6  -1   -0.06    0.75
  -1  -6  -1    2.02    1.15
  -1  -6  -1   -1.02    0.96
  -1  -6  -1    1.29    1.04
  -1  -6  -2    3.13    1.29
   1   6   2    2.00    0.77
   1   6   2    4.67    1.50
  -1  -6  -2    3.45    1.08
  -1  -6  -2    2.48    1.04
   1   6   2    1.36    1.10
   1   6   2    0.83    0.90
  -1  -6  -2    3.13    1.19
  -1  -6  -2    2.50    1.16
  -1  -6  -2    1.93    1.20
  -1  -6  -2    2.38    1.02
   1   6   3   44.38    3.86
   1   6   3   47.34    4.27
  -1  -6  -3   56.13    4.62
   1   6   3   49.34    3.74
   1   6   3   42.64    4.08
  -1  -6  -3   50.28    4.07
  -1  -6  -3   50.53    4.53
  -1  -6  -3   42.47    4.44
   1   6   3   44.61    4.29
  -1  -6  -3   49.40    4.11
  -1  -6  -4 1267.59   37.88
  -1  -6  -4 1308.72   38.05
  -1  -6  -4 1444.66   38.14
  -1  -6  -4 1373.10   36.81
   1   6   4 1295.97   37.91
  -1  -6  -4 1473.43   37.25
   1   6   4 1426.72   38.40
  -1  -6  -4 1474.75   39.57
   1   6   4 1351.42   37.72
   1   6   4 1467.94   36.87
   1   6   4 1429.33   37.32
   1   6   5  713.58   22.56
   1   6   5  689.28   22.44
   1   6   5  704.11   22.25
  -1  -6  -5  704.69   22.03
  -1  -6  -5  681.03   22.45
   1   6   5  708.32   21.70
  -1  -6  -5  707.15   22.80
  -1  -6  -5  747.47   23.27
   1   6   5  710.47   21.32
   1   6   6   91.75    5.82
   1   6   6   81.70    5.72
  -1  -6  -6   82.07    6.04
  -1  -6  -6   83.54    5.97
   1   6   6   83.63    5.99
   1   6   6   89.60    5.68
  -1  -6  -6   85.38    5.57
  -1  -6  -6   87.02    6.03
   1   6   6   76.33    5.18
   1   6   7   18.79    2.61
  -1  -6  -7   18.66    2.43
   1   6   7   25.24    3.07
   1   6   7   18.23    2.34
  -1  -6  -7   23.71    3.18
  -1  -6  -7   24.88    3.23
   1   6   7   21.96    3.03
   1   6   7   17.70    2.56
  -1  -6  -7   20.40    2.68
   1   6   8   64.10    4.65
   1   6   8   74.96    5.07
   1   6   8   63.93    5.07
   1   6   8   65.91    4.85
  -1  -6  -8   69.12    5.29
  -1  -6  -8   66.69    5.12
   1   6   9    4.21    1.26
   1   6   9    1.58    0.79
  -1  -6  -9    3.19    1.39
  -1  -6  -9    3.01    1.08
   1   6   9    3.11    1.02
   1   6   9    4.53    1.49
   1   6  10    6.51    1.41
   1   6  10    7.28    1.41
  -1  -6 -10    7.62    1.54
  -1  -6 -10    5.30    1.37
   1   6  10    6.68    1.43
   1   6  10    5.95    1.28
  -1  -6 -11    5.68    1.04
   1   6  11    6.19    1.16
   1   6  11    4.35    0.81
  -1  -6 -11    4.47    0.93
   1   6  11    5.12    0.95
  -1  -7   4   32.84    2.02
  -1  -7   4   29.65    1.98
   1   7  -4   28.29    2.07
  -1  -7   4   29.40    1.98
  -1  -7   3  144.12    5.89
   1   7  -3  146.36    6.21
  -1  -7   3  124.89    4.82
  -1  -7   3  135.93    5.68
  -1  -7   3  130.27    5.70
   1   7  -2   36.63    3.25
  -1  -7   2   34.68    2.50
   1   7  -1    8.61    1.46
  -1  -7   1   10.09    1.79
  -1  -7   1    8.05    1.47
  -1  -7   1    6.56    1.54
  -1  -7   1    9.39    1.42
  -1  -7   1    7.79    1.50
  -1  -7   0    3.70    1.22
  -1  -7   0    2.30    1.14
  -1  -7   0    2.80    0.98
  -1  -7   0    1.43    0.77
   1   7   0    4.06    1.31
  -1  -7  -1    0.81    0.86
   1   7   1    1.19    0.74
  -1  -7  -1    2.83    1.12
   1   7   1   -0.14    0.93
  -1  -7  -1    1.91    1.01
  -1  -7  -2    5.37    1.51
  -1  -7  -2    3.92    1.25
   1   7   2    5.18    1.38
  -1  -7  -2    5.04    1.62
   1   7   3   10.88    1.82
  -1  -7  -3   11.12    2.17
  -1  -7  -3    7.81    1.96
  -1  -7  -3    9.99    1.81
   1   7   4  105.18    6.08
  -1  -7  -4  115.51    6.80
  -1  -7  -4  111.53    5.87
   1   7   4  114.30    6.81
  -1  -7  -4  110.23    6.82
   1   7   5   -0.10    1.02
   1   7   5    1.94    1.35
  -1  -7  -5    0.40    0.95
  -1  -7  -5    0.56    0.68
   1   7   5    1.52    0.88
   1   7   5    2.33    1.14
  -1  -7  -5    1.13    0.83
   1   7   6  178.91    7.94
  -1  -7  -6  186.31    8.55
  -1  -7  -6  195.61    9.23
   1   7   6  179.35    8.35
  -1  -7  -6  188.73    7.53
   1   7   6  201.77    8.62
   1   7   6  198.35    9.23
  -1  -7  -7    7.85    1.70
  -1  -7  -7    8.01    1.60
  -1  -7  -7    6.94    1.59
   1   7   7    9.48    1.97
   1   7   7    9.62    1.69
   1   7   7    6.67    1.49
   1   7   7    6.07    1.48
  -1  -7  -7    6.70    1.48
   1   7   8   -0.37    0.69
  -1  -7  -8   -0.02    0.61
   1   7   8   -0.02    0.69
   1   7   8    0.14    0.80
   1   7   8    0.19    0.70
  -1  -7  -8    0.24    0.76
   1   7   9    3.16    0.81
  -1  -7  -9    3.45    1.01
   1   7   9    1.43    0.68
   1   7   9    2.97    0.91
   1   7   9    1.68    0.73
   1   7   9    2.93    0.89
  -1  -7  -9    3.75    1.08
   1   7  10    0.42    0.54
  -1  -7 -10   -0.16    0.42
  -1  -8   1   19.28    1.54
   1   8  -1   18.82    1.61
  -1  -8   1   19.27    1.60
   1   8   0   77.35    3.48
   1   8   0   87.33    4.14
  -1  -8  -1   27.24    2.39
   1   8   1   23.82    2.21
  -1  -8  -1   28.19    2.25
   1   8   1   26.97    2.30
  -1  -8  -2    0.33    0.56
   1   8   2    3.00    0.97
  -1  -8  -2    3.17    1.00
  -1  -8  -2    2.22    0.95
  -1  -8  -3   34.27    3.18
  -1  -8  -3   26.90    2.66
   1   8   3   30.51    2.84
  -1  -8  -3   34.62    2.93
   1   8   3   25.36    2.24
   1   8   4   22.78    2.26
  -1  -8  -4   30.21    2.81
  -1  -8  -4   30.95    2.82
  -1  -8  -4   30.96    3.09
   1   8   4   32.63    2.92
   1   8   5  186.13    7.63
  -1  -8  -5  196.85    7.85
  -1  -8  -5  185.81    8.05
   1   8   5  167.02    7.14
  -1  -8  -5  188.10    7.75
  -1  -8  -6  374.44   11.95
  -1  -8  -6  391.78   12.40
   1   8   6  376.38   11.82
   1   8   6  367.78   11.91
   1   8   7   56.35    3.40
  -1  -8  -7   59.86    3.60
  -1  -8  -8   15.28    1.59
   1   8   8   14.68    1.52
  -2   7   6   76.86    3.31
  -2   7   5    1.40    0.56
  -2   7   5    3.00    0.71
  -2   7   4   -0.41    0.59
  -2   7   3   10.45    1.43
  -2   7   2   30.05    2.32
   2  -7  -2   33.25    2.32
  -2   7   1    6.78    1.05
   2  -7  -1    6.80    1.00
   2  -7   0   11.86    1.21
  -2   6   9    5.23    0.81
  -2   6   9    5.67    0.82
  -2   6   8   17.14    1.77
  -2   6   8   17.66    1.80
   2  -6  -8   13.61    1.51
  -2   6   8   13.07    1.48
  -2   6   7   13.54    1.75
  -2   6   7   12.18    1.71
   2  -6  -7   14.72    1.80
  -2   6   7   12.93    1.62
   2  -6  -6    0.27    0.67
  -2   6   6   -0.32    0.86
  -2   6   6   -0.61    0.73
   2  -6  -6    0.13    0.77
  -2   6   6   -0.02    0.61
  -2   6   6    0.12    0.67
  -2   6   5  100.25    5.63
   2  -6  -5  108.04    5.78
  -2   6   5  104.53    4.89
  -2   6   5   92.75    4.83
  -2   6   5  105.73    5.73
  -2   6   5  109.19    5.94
   2  -6  -5  101.51    5.36
  -2   6   4   99.61    5.80
   2  -6  -4   97.50    5.27
   2  -6  -4  104.47    5.92
  -2   6   4  104.31    6.06
  -2   6   4  108.32    5.13
  -2   6   4  106.37    5.71
   2  -6  -3   -0.08    0.82
  -2   6   3    0.86    0.75
  -2   6   3    0.10    0.87
  -2   6   3    1.25    0.74
  -2   6   3    0.48    0.81
   2  -6  -3    0.93    0.98
   2  -6  -2   10.80    1.57
  -2   6   2    9.53    1.73
  -2   6   2    9.08    1.83
  -2   6   2    9.94    1.55
   2  -6  -2   10.58    1.94
  -2   6   1   15.96    2.32
   2  -6  -1   15.75    2.21
   2  -6   0   37.21    3.17
  -2   6   0   32.51    3.07
  -2   6  -1    2.37    0.81
  -2   6  -1    2.93    0.88
   2  -6   1    3.32    0.92
   2  -6   1    3.35    1.09
   2  -6   2   22.11    2.29
   2  -6   3   17.71    1.78
  -2   5  10   32.23    2.08
   2  -5 -10   34.77    2.33
  -2   5  10   31.85    2.24
  -2   5  10   32.33    2.18
  -2   5   9   33.28    2.65
  -2   5   9   41.82    3.00
   2  -5  -9   35.74    2.93
  -2   5   9   32.85    2.40
  -2   5   9   34.11    2.68
  -2   5   9   35.06    2.85
  -2   5   9   38.24    2.90
  -2   5   8   12.62    1.91
  -2   5   8   21.30    2.40
  -2   5   8   16.02    2.19
  -2   5   8   15.60    1.89
   2  -5  -8   15.61    2.16
  -2   5   8   13.60    1.94
  -2   5   8   14.86    1.87
  -2   5   7   16.53    2.03
  -2   5   7   17.16    2.45
  -2   5   7   19.95    2.63
  -2   5   7   20.28    2.27
   2  -5  -7   16.25    2.41
  -2   5   7   14.61    2.04
  -2   5   7   16.13    2.30
  -2   5   6   57.26    4.69
   2  -5  -6   56.84    4.57
  -2   5   6   55.69    4.54
  -2   5   6   59.35    4.38
  -2   5   6   60.67    4.36
  -2   5   6   58.43    4.78
  -2   5   6   53.98    4.27
   2  -5  -6   62.97    4.35
  -2   5   6   64.94    4.56
  -2   5   5  102.08    6.18
  -2   5   5  107.36    6.65
  -2   5   5  107.30    6.22
  -2   5   5  110.22    6.35
  -2   5   5  103.35    6.43
   2  -5  -5  111.69    7.05
  -2   5   5  105.98    6.35
   2  -5  -5  111.41    6.38
   2  -5  -5  101.44    6.74
   2  -5  -5  111.22    6.56
  -2   5   5  106.23    6.73
  -2   5   4    0.67    0.82
  -2   5   4    0.60    0.87
   2  -5  -4   -0.16    0.89
  -2   5   4    1.99    1.13
  -2   5   4    0.77    1.07
   2  -5  -4    0.43    0.82
  -2   5   4    1.26    0.81
  -2   5   4    0.13    1.07
   2  -5  -4   -0.63    1.32
  -2   5   3    0.60    0.91
  -2   5   3    0.90    0.97
  -2   5   3   -0.35    1.06
  -2   5   3    3.68    1.05
   2  -5  -3   -0.52    1.01
   2  -5  -3   -0.36    0.77
  -2   5   3    0.32    1.20
  -2   5   3    0.43    0.76
   2  -5  -3   -0.48    1.15
  -2   5   2   49.05    4.39
  -2   5   2   51.11    4.13
   2  -5  -2   48.10    4.30
   2  -5  -2   53.40    4.11
  -2   5   2   52.49    4.16
   2  -5  -2   48.75    4.58
  -2   5   2   43.38    4.08
  -2   5   2   52.24    4.69
  -2   5   2   47.58    3.94
   2  -5  -1    2.25    1.35
  -2   5   1   -0.36    1.00
   2  -5  -1   -0.06    0.80
  -2   5   1   -0.32    0.84
  -2   5   1    0.52    1.01
  -2   5   1    0.76    0.83
  -2   5   1   -1.24    1.19
  -2   5   1   -0.41    1.01
   2  -5  -1    0.84    0.95
  -2   5   0    5.25    1.35
  -2   5   0    4.60    1.55
  -2   5   0    3.26    1.41
   2  -5   0    4.01    1.28
   2  -5   0    2.26    1.22
   2  -5   1    1.69    0.99
   2  -5   1   -0.75    0.82
  -2   5  -1    0.40    1.10
  -2   5  -1    2.08    1.18
   2  -5   2    7.17    1.47
  -2   5  -2    4.76    1.36
   2  -5   2    5.18    1.34
  -2   5  -2    4.69    1.38
  -2   5  -3    1.70    1.09
   2  -5   3    3.43    1.27
   2  -5   4   68.76    4.54
  -2   5  -4   64.34    3.61
  -2   5  -4   68.94    4.48
  -2   5  -5    1.80    0.81
   2  -5   5    2.59    0.87
   2  -5   6    5.02    0.82
  -2   5  -6    4.56    0.77
   2  -4 -11   61.10    3.19
  -2   4  11   63.03    2.95
  -2   4  10    7.89    1.34
  -2   4  10    6.01    1.13
  -2   4  10    8.26    1.29
   2  -4 -10    5.22    1.29
  -2   4   9  162.35    7.18
  -2   4   9  150.12    6.91
  -2   4   9  163.38    7.33
   2  -4  -9  152.67    7.66
  -2   4   9  160.20    7.56
  -2   4   9  154.29    7.17
  -2   4   9  155.63    7.27
  -2   4   8   13.54    2.03
  -2   4   8   11.45    2.02
  -2   4   8    9.60    1.93
  -2   4   8   10.92    2.12
  -2   4   8   12.55    2.09
   2  -4  -8    8.54    1.91
  -2   4   8   11.07    2.07
   2  -4  -7    1.58    1.18
  -2   4   7    2.54    1.24
  -2   4   7    2.48    1.39
  -2   4   7    1.96    1.22
  -2   4   7    0.30    0.79
  -2   4   7   -0.25    0.74
   2  -4  -7    2.67    1.35
  -2   4   6  255.05   10.14
  -2   4   6  275.38   10.82
  -2   4   6  261.65   10.43
   2  -4  -6  258.08   11.44
  -2   4   6  267.45   11.60
  -2   4   6  273.59   11.51
  -2   4   6  276.33   10.41
  -2   4   6  269.61   11.33
   2  -4  -6  275.75   10.42
   2  -4  -6  275.08   11.85
   2  -4  -5    0.06    0.99
   2  -4  -5   -0.16    0.73
  -2   4   5    0.25    0.80
  -2   4   5   -1.10    0.91
  -2   4   5   -1.12    1.13
  -2   4   5    0.30    0.88
  -2   4   5   -0.29    0.83
  -2   4   5    0.81    0.88
  -2   4   5   -0.17    0.78
   2  -4  -5   -0.95    0.97
   2  -4  -4   47.82    4.24
   2  -4  -4   58.38    4.39
  -2   4   4   56.99    4.40
  -2   4   4   55.77    4.43
   2  -4  -4   56.44    4.17
  -2   4   4   54.31    4.61
  -2   4   4   52.13    4.34
  -2   4   4   44.90    3.94
   2  -4  -4   56.70    4.78
  -2   4   4   53.67    3.58
  -2   4   4   48.77    4.23
  -2   4   3  506.49   15.72
  -2   4   3  461.90   16.28
   2  -4  -3  456.98   15.90
   2  -4  -3  479.64   16.07
  -2   4   3  464.20   15.94
  -2   4   3  516.91   16.54
  -2   4   3  470.70   16.44
  -2   4   3  467.49   16.40
   2  -4  -3  494.61   17.01
  -2   4   3  455.67   15.96
   2  -4  -3  494.30   15.47
  -2   4   3  464.42   16.01
  -2   4   2   45.64    4.08
  -2   4   2   43.93    3.94
  -2   4   2   41.14    3.64
   2  -4  -2   40.24    3.97
  -2   4   2   48.94    4.13
  -2   4   2   42.98    3.79
  -2   4   2   46.15    3.95
   2  -4  -2   47.74    3.90
   2  -4  -2   45.54    3.50
  -2   4   2   40.85    3.47
  -2   4   1  272.60   10.51
  -2   4   1  271.55   11.19
  -2   4   1  266.99   11.39
  -2   4   1  273.74   10.49
   2  -4  -1  291.85   11.30
   2  -4  -1  280.45   11.64
  -2   4   1  245.27   10.63
  -2   4   1  274.94   11.03
   2  -4  -1  294.11   10.37
   2  -4  -1  286.93   10.71
  -2   4   0    3.75    1.20
  -2   4   0    2.85    1.35
   2  -4   0    2.71    1.24
  -2   4   0    3.45    1.16
  -2   4   0    3.32    1.16
   2  -4   0    1.67    1.13
  -2   4   0    4.78    1.43
   2  -4   0    3.18    1.11
  -2   4   0    1.66    1.27
  -2   4  -1   15.70    2.26
   2  -4   1   10.11    2.10
   2  -4   1   13.71    2.08
  -2   4  -1   14.01    2.22
  -2   4  -1   13.33    2.18
  -2   4  -1   14.98    2.41
  -2   4  -1   14.66    2.38
  -2   4  -1   10.36    1.95
  -2   4  -2    8.30    1.71
   2  -4   2    8.97    1.93
   2  -4   2   12.89    2.04
  -2   4  -2   10.95    1.98
  -2   4  -2    8.31    1.85
  -2   4  -2    9.53    1.93
  -2   4  -3   21.25    2.55
   2  -4   3   17.42    2.76
  -2   4  -3   20.15    2.70
  -2   4  -3   22.04    3.03
  -2   4  -4   25.87    3.28
   2  -4   4   29.74    2.73
   2  -4   4   31.58    3.58
  -2   4  -5   90.84    5.96
   2  -4   5   90.01    5.86
  -2   4  -5   83.64    4.71
   2  -4   6   77.73    4.92
  -2   4  -6   74.99    4.95
   2  -4   7   -0.81    0.62
  -2   4  -7    0.89    0.69
  -2   3  11    0.66    0.49
  -2   3  11    0.61    0.49
   2  -3 -11    1.41    0.71
   2  -3 -10   11.37    1.94
  -2   3  10   11.84    1.87
  -2   3  10    9.77    1.65
  -2   3  10   13.20    1.92
  -2   3  10    6.41    1.26
  -2   3   9   -0.34    0.70
  -2   3   9   -2.16    1.05
  -2   3   9    0.71    0.99
  -2   3   9    0.93    1.06
  -2   3   9    1.54    1.29
  -2   3   9    0.60    0.76
  -2   3   9    1.52    1.03
   2  -3  -8    2.56    1.36
  -2   3   8    5.84    1.57
  -2   3   8    7.64    1.73
  -2   3   8    4.74    1.24
  -2   3   8    6.47    1.81
  -2   3   8    5.32    1.42
  -2   3   8    6.15    1.72
  -2   3   8    7.71    1.71
   2  -3  -8    5.81    1.59
   2  -3  -7   48.14    4.33
  -2   3   7   62.57    5.03
  -2   3   7   55.10    4.19
  -2   3   7   56.61    4.40
   2  -3  -7   61.60    4.98
  -2   3   7   56.51    4.75
  -2   3   7   58.27    4.59
   2  -3  -6  214.41    9.49
  -2   3   6  239.31    9.52
  -2   3   6  216.52    9.75
   2  -3  -6  236.95    8.72
  -2   3   6  221.76    9.17
  -2   3   6  217.69    9.96
  -2   3   6  222.64    9.24
   2  -3  -6  230.25   10.31
  -2   3   6  212.21    9.97
  -2   3   6  236.63    9.22
   2  -3  -5   28.67    2.90
  -2   3   5   28.25    2.77
  -2   3   5   28.36    2.89
  -2   3   5   30.36    3.27
   2  -3  -5   32.39    3.38
  -2   3   5   30.43    2.97
  -2   3   5   27.31    3.12
  -2   3   5   28.70    2.81
  -2   3   5   30.33    3.15
  -2   3   5   26.10    2.58
   2  -3  -4   17.02    2.03
  -2   3   4   14.06    1.79
   2  -3  -4   17.20    2.37
  -2   3   4   15.23    2.26
  -2   3   4   17.59    2.34
  -2   3   4   12.82    2.05
  -2   3   4   18.52    2.29
  -2   3   4   17.39    2.14
  -2   3   4   16.32    2.20
  -2   3   4   13.99    1.91
   2  -3  -4   19.92    2.56
  -2   3   3  182.36    7.23
  -2   3   3  184.48    6.75
  -2   3   3  167.85    7.35
  -2   3   3  159.70    7.36
   2  -3  -3  162.20    7.53
  -2   3   3  168.63    7.84
  -2   3   3  165.13    7.67
   2  -3  -3  169.14    7.89
  -2   3   3  173.42    7.85
  -2   3   3  157.94    7.44
   2  -3  -3  171.45    6.64
   2  -3  -2   83.10    4.89
  -2   3   2   80.85    4.83
  -2   3   2   85.61    4.98
  -2   3   2   86.36    5.13
  -2   3   2   93.45    5.37
  -2   3   2   85.41    5.17
  -2   3   2   79.24    4.77
   2  -3  -2   85.99    4.79
  -2   3   2   81.33    4.44
   2  -3  -2   83.76    5.10
  -2   3   1  119.96    5.55
  -2   3   1  122.04    5.88
  -2   3   1  121.29    6.20
  -2   3   1  134.40    6.42
  -2   3   1  112.59    6.19
  -2   3   1  121.47    6.22
   2  -3  -1  119.75    5.77
  -2   3   1  113.21    5.85
   2  -3  -1  123.74    6.34
  -2   3   0  270.31   10.43
  -2   3   0  285.76    9.88
  -2   3   0  286.44   10.82
   2  -3   0  280.59   10.63
  -2   3   0  287.73   10.37
   2  -3   0  283.05    9.98
  -2   3   0  264.31   10.33
  -2   3  -1  494.94   16.02
   2  -3   1  517.48   15.51
  -2   3  -1  495.51   16.13
  -2   3  -1  492.22   15.23
  -2   3  -1  503.44   16.02
  -2   3  -1  497.21   15.53
  -2   3  -1  502.10   15.83
   2  -3   1  473.81   15.85
  -2   3  -2  228.88    8.97
  -2   3  -2  230.02    9.53
  -2   3  -2  226.66    9.58
  -2   3  -2  234.24    9.81
  -2   3  -2  228.98    8.82
   2  -3   2  228.02    9.61
   2  -3   2  232.17    9.22
  -2   3  -2  233.37    9.18
  -2   3  -3   54.45    3.74
   2  -3   3   63.14    3.96
  -2   3  -3   62.17    4.85
  -2   3  -3   49.39    3.93
   2  -3   3   56.79    4.67
   2  -3   3   60.67    4.37
  -2   3  -3   61.27    4.40
   2  -3   3   56.62    3.90
   2  -3   3   52.14    4.25
  -2   3  -3   50.52    4.00
  -2   3  -4    9.45    1.85
  -2   3  -4    9.01    2.28
   2  -3   4   10.01    1.84
  -2   3  -4   10.42    1.77
   2  -3   4   10.84    1.82
   2  -3   4    8.09    1.84
  -2   3  -4    7.66    1.85
   2  -3   4    8.76    1.91
   2  -3   5   71.48    5.00
  -2   3  -5   67.66    5.40
   2  -3   5   81.23    4.90
   2  -3   5   82.61    5.88
  -2   3  -5   82.77    5.16
  -2   3  -5   80.96    6.01
  -2   3  -5   74.29    5.30
   2  -3   5   81.77    5.53
  -2   3  -6    2.13    1.23
   2  -3   6    0.16    0.85
  -2   3  -6    1.32    0.78
   2  -3   6    2.61    0.95
   2  -3   6    2.96    1.61
   2  -3   7    9.59    1.87
   2  -3   7    9.21    1.73
  -2   3  -7    9.87    2.01
  -2   3  -8    2.31    1.03
   2  -3   8    1.43    0.78
   2  -3   9    3.35    0.73
  -2   3  -9    3.77    0.85
   2  -3   9    3.81    0.75
  -2   2  11    0.57    0.47
  -2   2  11    1.82    0.75
  -2   2  11    0.60    0.54
  -2   2  10   -0.01    0.83
  -2   2  10   -0.44    0.88
  -2   2  10    1.09    0.88
  -2   2  10    0.23    0.67
  -2   2   9    0.62    1.04
  -2   2   9   -0.47    0.97
  -2   2   9    0.67    0.69
  -2   2   9   -1.27    0.86
  -2   2   8   92.51    5.95
   2  -2  -8   74.49    5.69
  -2   2   8   77.08    5.85
  -2   2   8   91.79    5.71
  -2   2   8   94.38    5.46
  -2   2   8   94.77    5.62
  -2   2   8   91.91    5.43
  -2   2   8  101.56    6.04
  -2   2   8   84.94    5.69
   2  -2  -8   99.36    6.43
  -2   2   7   92.73    5.69
   2  -2  -7   67.93    5.21
  -2   2   7   77.43    5.19
  -2   2   7   79.68    5.24
   2  -2  -7   87.79    5.86
  -2   2   7   82.67    5.83
  -2   2   7   89.10    5.44
  -2   2   7   75.16    5.01
  -2   2   7   79.91    5.05
  -2   2   7   83.18    5.43
   2  -2  -6    6.86    1.55
  -2   2   6    6.45    1.40
  -2   2   6    5.82    1.68
  -2   2   6    7.82    1.74
   2  -2  -6    6.20    1.62
  -2   2   6    6.52    1.49
  -2   2   6    6.22    1.44
  -2   2   6    6.92    1.59
  -2   2   5  379.78   12.93
   2  -2  -5  377.81   12.91
  -2   2   5  394.21   12.91
  -2   2   5  379.30   13.12
  -2   2   5  395.77   13.78
  -2   2   5  403.16   12.06
  -2   2   5  392.95   13.20
  -2   2   5  396.39   13.41
  -2   2   5  408.37   12.95
   2  -2  -5  401.32   13.73
   2  -2  -4  382.72   12.11
  -2   2   4  407.54   12.14
  -2   2   4  358.78   12.65
  -2   2   4  390.98   12.86
  -2   2   4  378.66   13.05
  -2   2   4  394.98   11.94
  -2   2   4  387.84   12.71
   2  -2  -4  398.74   13.14
   2  -2  -3   41.43    2.67
  -2   2   3   46.67    2.86
  -2   2   3   43.67    2.98
   2  -2  -3   44.16    3.34
  -2   2   2  616.58   15.69
  -2   2   2  585.44   15.23
  -2   2   2  569.09   16.20
   2  -2  -2  547.04   14.96
   2  -2  -2  572.48   16.70
   2  -2  -1   45.89    2.10
  -2   2   1   42.53    2.54
   2  -2  -1   39.63    2.97
   2  -2  -1   39.82    2.90
  -2   2   1   43.56    2.97
  -2   2   0   37.95    2.00
  -2   2   0   38.38    2.44
  -2   2   0   37.62    2.76
   2  -2   0   34.71    2.69
   2  -2   0   35.44    2.74
  -2   2  -1  881.92   21.88
  -2   2  -1  864.28   22.06
   2  -2   1  826.72   22.74
  -2   2  -1  841.23   22.54
   2  -2   1  855.65   22.74
  -2   2  -2    1.12    0.65
   2  -2   2    2.08    0.71
  -2   2  -2    0.37    0.76
  -2   2  -2    0.99    0.71
   2  -2   2    1.90    0.91
  -2   2  -2    1.67    0.73
  -2   2  -2    0.33    0.62
   2  -2   2    2.22    0.82
  -2   2  -3   13.89    2.07
   2  -2   3   11.70    1.62
   2  -2   3   13.09    1.85
  -2   2  -3   12.60    1.69
  -2   2  -3   11.85    1.49
   2  -2   3    8.90    1.36
  -2   2  -3   10.82    1.65
   2  -2   3   10.56    1.70
  -2   2  -4  297.59   11.65
   2  -2   4  276.62   10.43
  -2   2  -4  269.26   10.08
   2  -2   4  277.32   11.20
   2  -2   4  279.07    9.83
   2  -2   4  279.95   10.52
  -2   2  -4  293.90   11.21
   2  -2   4  285.29   10.91
  -2   2  -4  266.44   10.25
   2  -2   5   67.17    4.78
  -2   2  -5   67.46    5.31
  -2   2  -5   71.75    4.39
   2  -2   5   66.63    4.91
   2  -2   5   69.59    4.45
   2  -2   5   67.84    5.14
   2  -2   5   65.27    4.38
  -2   2  -5   77.33    5.57
  -2   2  -5   65.70    4.51
  -2   2  -5   60.25    4.49
   2  -2   6  270.68   11.46
  -2   2  -6  300.77   12.67
   2  -2   6  279.66   10.60
   2  -2   6  288.33   12.21
  -2   2  -6  287.08   10.85
   2  -2   6  276.32   10.94
   2  -2   6  274.08   11.68
  -2   2  -6  288.14   12.47
  -2   2  -6  266.15   11.20
   2  -2   7   48.07    4.30
   2  -2   7   47.41    3.69
   2  -2   7   41.23    4.23
  -2   2  -7   44.11    3.46
  -2   2  -7   50.47    4.77
   2  -2   7   46.19    4.28
  -2   2  -7   43.43    4.40
  -2   2  -7   52.64    4.39
   2  -2   8    5.54    1.59
   2  -2   8    5.62    1.56
  -2   2  -8    4.61    1.71
   2  -2   9   25.60    2.67
   2  -2   9   26.71    2.70
  -2   2  -9   25.70    2.64
   2  -2   9   26.31    2.71
   2  -2  10    1.68    0.56
   2  -2  10    2.71    0.67
  -2   2 -10    3.52    0.78
  -2   2 -10    3.84    0.82
  -2   1  11   57.81    3.59
  -2   1  11   59.71    3.81
  -2   1  10  118.47    6.12
  -2   1  10  105.32    6.23
  -2   1  10  104.59    6.06
  -2   1  10  109.94    5.28
   2  -1  -9    4.58    1.67
  -2   1   9    6.22    1.67
   2  -1  -9    7.11    1.61
  -2   1   9    7.69    1.45
  -2   1   9    6.52    1.56
  -2   1   9    6.54    1.35
  -2   1   9    8.66    1.91
   2  -1  -8   23.03    3.10
  -2   1   8   32.08    3.26
  -2   1   8   31.51    3.04
  -2   1   8   33.00    3.13
  -2   1   8   27.88    3.31
  -2   1   8   28.27    3.41
  -2   1   8   30.04    3.25
   2  -1  -8   34.05    3.67
   2  -1  -7    3.71    1.35
  -2   1   7    3.73    1.24
  -2   1   7    3.96    1.10
  -2   1   7    3.10    1.01
  -2   1   7    4.55    1.31
  -2   1   7    5.93    1.49
  -2   1   7    5.17    1.29
  -2   1   7    3.92    1.08
  -2   1   7    2.50    1.06
  -2   1   7    5.08    1.50
   2  -1  -6   58.31    4.30
  -2   1   6   59.36    4.25
  -2   1   6   61.88    4.29
  -2   1   6   60.29    4.15
  -2   1   6   57.06    4.34
  -2   1   6   60.75    4.59
  -2   1   6   60.93    4.18
  -2   1   6   61.86    4.26
  -2   1   6   61.75    4.27
  -2   1   6   54.61    4.25
  -2   1   5  226.64    8.65
  -2   1   5  233.92    8.81
  -2   1   5  240.02    7.29
  -2   1   5  225.84    8.84
  -2   1   5  223.71    8.90
  -2   1   5  231.76    8.86
  -2   1   5  229.19    9.25
   2  -1  -5  202.08    8.40
  -2   1   5  216.86    8.63
  -2   1   5  223.61    8.80
  -2   1   5  212.10    8.88
   2  -1  -4   45.25    3.02
  -2   1   4   42.80    2.89
  -2   1   4   39.72    2.47
  -2   1   4   45.34    3.10
  -2   1   3  452.12   12.58
   2  -1  -3  443.50   13.22
  -2   1   3  454.21   12.81
  -2   1   3  445.34   12.44
   2  -1  -3  433.29   12.44
   2  -1  -2  155.10    5.25
  -2   1   2  166.48    6.03
  -2   1   2  159.45    5.77
   2  -1  -2  160.22    6.09
  -2   1   1    0.05    0.51
  -2   1   1    0.61    0.48
  -2   1   1    1.00    0.36
   2  -1  -1    0.89    0.31
   2  -1  -1    1.57    0.71
   2  -1   0   39.69    2.44
  -2   1   0   44.63    2.71
  -2   1   0   45.30    2.61
  -2   1   0   36.95    1.86
   2  -1   0   38.09    2.50
  -2   1   0   40.40    1.94
  -2   1  -1  618.48   15.05
  -2   1  -1  605.52   16.17
  -2   1  -1  605.83   15.92
   2  -1   1  630.84   16.30
   2  -1   1  586.08   15.71
  -2   1  -2  285.28    8.83
   2  -1   2  277.76    9.00
   2  -1   2  245.50    8.23
  -2   1  -2  273.63    8.49
  -2   1  -2  284.29    8.86
   2  -1   2  268.83    8.44
  -2   1  -2  282.38    8.19
  -2   1  -3    0.49    0.48
   2  -1   3   -0.12    0.47
  -2   1  -3   -0.45    0.53
  -2   1  -3    1.50    0.71
   2  -1   3   -0.56    0.68
   2  -1   3   -0.43    0.62
  -2   1  -3   -0.43    0.78
  -2   1  -4  140.26    6.66
   2  -1   4  132.92    6.12
  -2   1  -4  145.57    6.98
   2  -1   4  147.48    6.65
  -2   1  -4  133.32    5.05
   2  -1   4  136.37    6.66
  -2   1  -5    8.24    1.80
   2  -1   5   11.75    1.78
   2  -1   5    8.63    1.64
  -2   1  -5   12.35    1.75
  -2   1  -5    9.06    1.58
   2  -1   5   12.34    2.05
  -2   1  -5   12.23    2.10
   2  -1   5   11.78    1.97
  -2   1  -6   12.03    2.24
   2  -1   6    8.13    1.74
  -2   1  -6   10.49    1.82
  -2   1  -6    8.97    1.96
   2  -1   6   12.98    2.01
   2  -1   6    9.56    2.08
   2  -1   6    7.97    1.69
   2  -1   6    9.54    1.86
   2  -1   7   49.00    4.34
   2  -1   7   57.95    4.85
   2  -1   7   45.92    3.78
   2  -1   7   52.86    4.73
   2  -1   7   44.68    4.05
  -2   1  -7   43.30    4.50
  -2   1  -7   49.06    4.75
  -2   1  -7   42.79    3.57
   2  -1   8   38.53    3.91
  -2   1  -8   39.75    4.29
   2  -1   8   36.19    3.80
   2  -1   8   35.84    3.95
   2  -1   8   32.21    3.73
  -2   1  -8   33.79    3.82
  -2   1  -8   36.99    3.67
   2  -1   9   96.63    6.06
   2  -1   9   99.34    6.15
   2  -1   9   93.63    6.03
  -2   1  -9  101.70    6.25
   2  -1  10    2.92    1.09
   2  -1  10    1.91    0.90
   2  -1  10    1.34    0.69
  -2   1 -10    2.16    1.01
   2  -1  10    1.99    0.96
  -2   1 -10    0.89    0.75
  -2   1 -11    1.65    0.61
  -2   0  11   -0.62    0.71
  -2   0  11   -0.15    0.61
  -2   0  10    0.22    0.75
  -2   0  10    0.12    0.73
  -2   0  10   -0.26    0.67
  -2   0  10    0.78    0.94
  -2   0   9  178.51    8.59
  -2   0   9  168.24    8.11
  -2   0   9  174.04    8.31
  -2   0   9  171.43    7.45
  -2   0   9  174.17    8.80
   2   0  -8   48.15    4.46
  -2   0   8   52.44    4.38
  -2   0   8   53.24    4.37
  -2   0   8   55.58    4.19
  -2   0   8   55.58    4.60
  -2   0   8   55.49    4.82
   2   0  -7  108.26    6.51
  -2   0   7  108.29    5.65
  -2   0   7  105.12    6.36
  -2   0   7  106.25    5.71
  -2   0   7  115.53    6.37
  -2   0   7  105.56    6.30
  -2   0   7  109.32    6.07
  -2   0   7  105.90    6.58
   2   0  -6  281.53   11.02
  -2   0   6  297.37   10.61
  -2   0   6  293.89   10.18
  -2   0   6  292.83   11.18
  -2   0   6  317.56   11.02
   2   0  -6  297.12    9.88
  -2   0   6  280.09   11.04
  -2   0   6  298.71   10.89
  -2   0   6  281.68   11.28
  -2   0   5    2.76    1.11
   2   0  -5    1.89    0.96
  -2   0   5    0.72    0.61
  -2   0   5    3.17    1.04
  -2   0   5    2.94    1.09
  -2   0   5    2.48    1.08
  -2   0   5    1.09    0.98
   2   0  -5    2.26    0.76
   2   0  -4  857.92   23.09
  -2   0   4  875.10   22.38
  -2   0   4  883.09   22.82
   2   0  -4  867.15   21.95
  -2   0   4  891.17   23.26
  -2   0   4  915.65   21.59
   2   0  -3 1822.07   43.92
  -2   0   3 1889.71   43.26
   2   0  -3 1831.57   43.00
  -2   0   3 1895.27   44.17
  -2   0   2   30.03    1.86
  -2   0   2   29.18    1.92
  -2   0   1    0.72    0.60
   2   0  -1    0.52    0.28
  -2   0   1    0.40    0.47
   2   0   0 1012.75   23.12
  -2   0   0  980.83   24.44
  -2   0   0 1078.52   24.91
   2   0   0 1009.11   24.19
  -2   0  -1  366.50   10.37
   2   0   1  369.25    9.90
  -2   0  -1  383.65   10.40
   2   0   1  393.60   10.78
  -2   0  -1  392.38   10.70
  -2   0  -1  390.10    9.13
   2   0   2 3419.41   76.52
   2   0   2 3347.62   75.30
  -2   0  -2 3146.38   76.35
  -2   0  -2 3417.70   75.92
  -2   0  -2 3331.47   76.17
   2   0   3   12.94    1.48
  -2   0  -3   13.46    1.72
  -2   0  -3   15.38    1.33
  -2   0  -3   12.19    0.81
   2   0   3   13.76    1.55
   2   0   3   12.87    1.13
  -2   0  -4   31.15    1.75
   2   0   4   27.11    2.31
  -2   0  -4   31.94    2.81
   2   0   4   30.06    2.34
   2   0   4   31.01    2.57
  -2   0  -4   34.43    1.92
  -2   0  -5  547.44   14.77
  -2   0  -5  579.40   17.58
  -2   0  -5  604.75   17.65
   2   0   5  544.05   17.10
   2   0   5  527.82   16.18
   2   0   5  570.92   15.16
   2   0   5  562.20   16.86
   2   0   5  543.21   16.49
   2   0   6   20.89    2.56
   2   0   6   22.61    2.87
   2   0   6   22.87    2.72
  -2   0  -6   22.15    2.28
   2   0   6   23.40    2.44
  -2   0  -6   21.68    2.78
   2   0   6   19.81    2.43
  -2   0  -6   25.95    2.61
   2   0   6   23.07    2.08
   2   0   6   18.91    2.41
  -2   0  -6   26.72    3.04
   2   0   7   21.99    2.83
   2   0   7   21.53    2.83
  -2   0  -7   24.92    3.24
   2   0   7   19.54    2.71
   2   0   7   19.04    2.36
   2   0   7   20.31    2.67
  -2   0  -7   19.35    2.36
   2   0   7   24.28    3.06
  -2   0  -7   22.36    3.06
   2   0   8   86.11    5.99
  -2   0  -8  101.65    6.70
  -2   0  -8   86.29    6.46
   2   0   8   96.93    6.57
   2   0   8   95.73    6.17
   2   0   8   91.86    6.15
   2   0   8   90.37    6.27
   2   0   9   22.99    3.13
   2   0   9   15.91    2.58
   2   0   9   18.70    2.83
  -2   0  -9   18.17    2.99
   2   0   9   18.43    2.74
  -2   0  -9   20.10    3.00
   2   0  10   30.17    3.17
   2   0  10   34.11    3.36
  -2   0 -10   32.50    3.41
  -2   0 -10   29.12    3.01
   2   0  10   27.23    3.07
   2   0  11   49.64    3.45
   2   0  11   46.63    3.29
  -2   0 -11   49.99    3.49
   2   0  11   44.10    3.20
  -2   0 -11   41.76    2.81
  -2  -1  11   71.55    3.58
  -2  -1  11   75.75    3.55
  -2  -1  10   12.23    1.71
  -2  -1  10    9.12    1.52
  -2  -1  10   10.76    1.78
  -2  -1  10   12.85    1.91
  -2  -1   9   30.93    3.22
   2   1  -9   31.93    2.89
  -2  -1   9   26.30    2.97
  -2  -1   9   33.06    3.36
  -2  -1   9   30.40    2.73
  -2  -1   9   29.22    3.31
   2   1  -8    3.00    1.32
  -2  -1   8    3.73    1.08
  -2  -1   8    3.07    1.24
  -2  -1   8    1.88    0.98
   2   1  -8    4.59    1.24
  -2  -1   8    5.97    1.81
  -2  -1   8    3.93    1.57
   2   1  -7   34.01    3.61
  -2  -1   7   36.72    3.55
  -2  -1   7   39.40    3.75
  -2  -1   7   46.67    3.97
  -2  -1   7   40.98    3.45
  -2  -1   7   41.58    4.07
  -2  -1   7   37.75    3.67
  -2  -1   7   37.03    3.14
  -2  -1   7   43.80    4.05
  -2  -1   7   35.67    3.45
   2   1  -7   43.37    3.76
   2   1  -6  135.64    6.99
  -2  -1   6  140.78    6.88
  -2  -1   6  135.39    6.34
  -2  -1   6  138.01    6.89
  -2  -1   6  139.07    6.82
  -2  -1   6  125.96    6.57
  -2  -1   6  129.81    6.37
   2   1  -6  131.99    6.56
  -2  -1   6  134.07    6.95
  -2  -1   6  133.31    7.09
   2   1  -5   70.30    4.48
  -2  -1   5   73.31    4.38
  -2  -1   5   73.79    4.49
   2   1  -5   68.45    4.16
  -2  -1   5   67.86    4.11
  -2  -1   5   73.35    4.46
  -2  -1   5   68.05    4.24
  -2  -1   5   68.61    4.36
  -2  -1   5   70.05    4.44
  -2  -1   5   71.68    4.63
  -2  -1   4   51.91    3.56
   2   1  -4   56.70    3.56
  -2  -1   3  973.47   23.18
  -2  -1   3  977.28   24.58
  -2  -1   3  929.23   23.92
   2   1  -3  958.16   24.28
  -2  -1   3  980.28   23.42
  -2  -1   2 1679.27   38.80
  -2  -1   2 1636.81   38.58
  -2  -1   1   18.62    1.51
  -2  -1   1   18.06    1.43
  -2  -1   0  406.22   10.40
   2   1   0  370.70    8.73
   2   1   1   36.39    1.40
   2   1   1   31.86    1.80
  -2  -1  -2  143.23    4.78
   2   1   2  137.67    4.75
  -2  -1  -2  147.60    4.95
  -2  -1  -2  142.84    4.32
  -2  -1  -3  132.19    4.52
   2   1   3  136.63    5.39
  -2  -1  -3  139.39    4.75
  -2  -1  -3  135.38    4.78
   2   1   3  140.38    5.09
  -2  -1  -3  140.12    5.70
   2   1   4  852.94   22.30
  -2  -1  -4  865.23   20.91
   2   1   4  885.81   22.34
  -2  -1  -4  863.52   22.81
   2   1   4  838.37   21.74
  -2  -1  -4  857.09   21.28
  -2  -1  -4  884.91   21.23
   2   1   5 1445.17   34.20
  -2  -1  -5 1391.25   34.51
   2   1   5 1377.09   35.15
   2   1   5 1394.54   35.62
  -2  -1  -5 1451.10   36.46
  -2  -1  -6  203.45    7.61
  -2  -1  -6  206.75    8.97
   2   1   6  226.24    8.72
   2   1   6  209.66    8.55
   2   1   6  203.94    8.90
   2   1   6  202.51    8.15
  -2  -1  -6  193.14    7.98
  -2  -1  -6  199.59    8.81
   2   1   6  199.38    7.70
  -2  -1  -7   15.77    2.00
   2   1   7   15.61    2.34
   2   1   7   12.38    2.20
  -2  -1  -7   16.74    2.68
   2   1   7    8.51    1.85
   2   1   7   14.16    2.24
   2   1   7   12.13    2.20
   2   1   7   10.67    1.68
   2   1   7   14.42    2.38
  -2  -1  -7   12.39    2.25
  -2  -1  -8   22.58    2.55
   2   1   8   19.02    2.73
   2   1   8   26.11    3.20
   2   1   8   23.72    3.15
   2   1   8   22.48    2.83
   2   1   8   20.53    2.43
   2   1   8   22.38    3.07
  -2  -1  -8   19.34    2.89
  -2  -1  -8   23.76    3.12
   2   1   8   24.03    3.01
  -2  -1  -9    7.70    1.95
   2   1   9    4.25    1.57
  -2  -1  -9    5.10    1.55
   2   1   9    5.10    1.48
   2   1   9    6.39    1.86
   2   1   9    3.48    1.41
   2   1   9    8.05    2.19
  -2  -1  -9    5.72    1.72
   2   1  10   28.24    3.15
   2   1  10   24.71    3.05
   2   1  10   24.02    3.08
   2   1  10   23.87    2.91
  -2  -1 -10   20.42    2.96
  -2  -1 -10   25.79    3.04
   2   1  11   14.01    1.96
   2   1  11   10.81    1.71
  -2  -1 -11   11.78    1.98
   2   1  11   10.92    1.85
  -2  -1 -11    8.07    1.40
  -2  -1 -12    0.44    0.59
   2   1  12    1.09    0.56
   2   1  12   -0.17    0.58
  -2  -2  10   19.82    1.94
  -2  -2  10   25.09    2.12
  -2  -2  10   23.16    2.17
  -2  -2   9   65.75    4.35
   2   2  -9   61.39    3.95
  -2  -2   9   62.54    4.45
  -2  -2   9   65.27    3.83
  -2  -2   9   72.63    4.76
  -2  -2   8   28.14    2.87
  -2  -2   8   20.71    2.76
  -2  -2   8   20.71    2.94
  -2  -2   8   20.68    2.68
  -2  -2   8   18.90    2.71
   2   2  -7   94.97    6.20
  -2  -2   7   91.36    5.94
  -2  -2   7   99.83    6.13
  -2  -2   7   95.95    5.81
   2   2  -7   96.23    6.25
  -2  -2   7   90.91    5.37
  -2  -2   7   98.62    6.46
  -2  -2   7   99.53    5.96
  -2  -2   7   97.02    6.33
  -2  -2   7   92.42    5.95
   2   2  -6   92.47    5.85
  -2  -2   6   94.50    5.50
  -2  -2   6   86.50    5.77
  -2  -2   6   89.34    5.33
   2   2  -6   77.53    5.43
  -2  -2   6   97.04    5.83
  -2  -2   6   90.81    5.67
  -2  -2   6   89.04    5.91
  -2  -2   6   93.32    5.68
  -2  -2   5   40.56    3.68
  -2  -2   5   46.99    3.63
  -2  -2   5   51.86    3.51
  -2  -2   5   43.44    3.57
  -2  -2   5   46.32    3.69
   2   2  -5   47.55    3.96
  -2  -2   5   53.29    3.79
  -2  -2   5   42.90    3.62
  -2  -2   4   49.21    3.66
  -2  -2   4   44.25    3.24
  -2  -2   4   44.14    3.25
   2   2  -4   44.07    3.50
  -2  -2   4   44.78    3.46
  -2  -2   4   44.82    3.43
  -2  -2   4   39.38    3.12
  -2  -2   4   43.13    3.18
  -2  -2   3 1209.53   30.95
   2   2  -3 1195.64   31.57
  -2  -2   3 1269.14   30.02
   2   2  -2  974.38   23.17
  -2  -2   2  963.24   23.94
   2   2  -1 1090.60   26.14
  -2  -2   1 1100.76   26.70
   2   2  -1 1089.09   26.42
  -2  -2   0 1514.67   36.35
   2   2   0 1541.94   35.92
  -2  -2   0 1593.73   36.82
  -2  -2  -1  729.40   18.44
  -2  -2  -1  736.91   18.14
   2   2   1  712.44   16.95
   2   2   1  723.61   17.39
   2   2   2  156.57    4.82
   2   2   2  177.86    5.74
  -2  -2  -2  170.03    5.45
   2   2   2  154.68    4.64
  -2  -2  -2  167.31    5.67
  -2  -2  -3  196.87    6.52
   2   2   3  204.57    6.71
   2   2   3  194.73    6.05
  -2  -2  -3  198.69    6.55
  -2  -2  -4  441.02   12.12
   2   2   4  429.39   12.00
   2   2   4  414.93   11.69
  -2  -2  -4  433.96   11.66
   2   2   5   50.24    2.97
   2   2   5   56.38    3.50
   2   2   5   57.49    3.21
   2   2   5   51.84    3.20
  -2  -2  -5   53.40    3.66
   2   2   5   49.55    3.16
  -2  -2  -5   63.20    2.93
  -2  -2  -5   47.76    3.13
  -2  -2  -6  411.87   13.02
   2   2   6  395.00   12.29
   2   2   6  419.33   12.12
  -2  -2  -6  441.06   14.21
   2   2   6  423.77   14.16
   2   2   6  405.76   13.00
  -2  -2  -6  419.93   14.03
  -2  -2  -6  412.17   13.78
   2   2   6  396.92   13.13
   2   2   6  415.34   13.21
   2   2   7  833.68   22.49
   2   2   7  824.66   23.63
   2   2   7  856.09   24.30
  -2  -2  -7  874.27   24.85
   2   2   7  823.85   24.65
   2   2   7  825.14   23.51
   2   2   7  788.95   23.10
  -2  -2  -7  832.87   24.36
  -2  -2  -7  815.72   24.41
  -2  -2  -7  823.30   23.31
   2   2   7  812.32   23.40
  -2  -2  -8  215.66    9.39
   2   2   8  216.12    9.68
   2   2   8  223.69    8.77
   2   2   8  223.68    9.56
   2   2   8  215.07    9.97
  -2  -2  -8  239.48   10.71
   2   2   8  213.59   10.26
   2   2   8  233.65    9.86
   2   2   8  221.84    9.40
  -2  -2  -8  227.74   10.29
  -2  -2  -8  207.83    9.80
  -2  -2  -9  370.44   13.74
   2   2   9  385.56   12.80
   2   2   9  367.80   14.38
  -2  -2  -9  391.77   15.12
   2   2   9  350.89   14.52
   2   2   9  387.85   14.20
   2   2   9  353.01   13.38
   2   2   9  373.36   14.18
  -2  -2  -9  391.03   14.36
   2   2   9  367.38   13.73
   2   2  10   16.21    2.37
   2   2  10   17.46    2.69
  -2  -2 -10    9.28    2.15
   2   2  10   14.19    2.33
   2   2  10   10.68    2.15
  -2  -2 -10   14.22    2.25
   2   2  11   62.58    4.20
   2   2  11   57.53    4.31
  -2  -2 -11   55.54    4.42
  -2  -2 -11   48.88    3.46
   2   2  11   55.21    4.34
   2   2  11   59.01    4.27
   2   2  12   62.29    3.67
  -2  -2 -12   53.67    3.59
   2   2  12   53.82    2.97
   2   2  12   57.72    3.19
  -2  -3   9   14.61    1.64
  -2  -3   9   12.46    1.70
   2   3  -9   13.28    1.53
  -2  -3   9   12.51    1.52
  -2  -3   9   14.46    1.41
  -2  -3   8    1.94    0.98
  -2  -3   8    3.98    1.16
  -2  -3   8    1.60    0.98
  -2  -3   8    2.97    0.89
  -2  -3   8    2.41    0.86
  -2  -3   8    3.82    1.25
   2   3  -7   90.77    6.01
  -2  -3   7  105.11    5.75
  -2  -3   7   97.10    5.98
  -2  -3   7   95.60    6.36
  -2  -3   7   94.87    6.00
  -2  -3   7   99.45    6.03
   2   3  -7   87.48    6.24
  -2  -3   7   99.35    5.94
  -2  -3   7   96.54    5.94
   2   3  -7  104.07    6.83
   2   3  -6   28.91    3.42
   2   3  -6   21.92    2.80
  -2  -3   6   22.58    2.73
  -2  -3   6   21.40    2.83
   2   3  -6   26.99    2.90
  -2  -3   6   24.17    2.89
  -2  -3   6   24.82    3.29
  -2  -3   6   24.18    3.03
   2   3  -6   25.05    3.24
  -2  -3   6   24.32    2.98
   2   3  -5    0.54    0.89
   2   3  -5    0.62    1.01
  -2  -3   5    1.69    1.22
  -2  -3   5    0.26    0.75
  -2  -3   5    0.04    0.98
  -2  -3   5    0.13    0.88
  -2  -3   5    0.45    1.01
   2   3  -5    0.11    1.00
  -2  -3   4    9.52    1.95
  -2  -3   4    9.06    1.48
   2   3  -4    6.43    1.51
  -2  -3   4    9.88    1.69
  -2  -3   4   10.68    1.78
  -2  -3   4    8.83    1.71
  -2  -3   4   10.15    1.81
  -2  -3   3  124.72    5.84
  -2  -3   3  109.22    5.77
  -2  -3   3  110.89    5.69
  -2  -3   3  108.19    5.90
  -2  -3   3  109.96    4.82
   2   3  -3  108.91    6.00
  -2  -3   3  118.12    5.70
  -2  -3   3  112.91    5.74
   2   3  -3  119.56    6.03
  -2  -3   2   81.55    4.19
  -2  -3   2   82.62    3.98
   2   3  -2   86.34    3.50
  -2  -3   2   81.94    4.11
   2   3  -2   81.63    4.75
   2   3  -2   88.31    4.72
  -2  -3   1  500.20   14.27
  -2  -3   1  493.63   14.13
   2   3  -1  499.95   13.36
  -2  -3   1  485.86   13.77
   2   3  -1  475.60   14.06
   2   3   0  101.36    4.32
  -2  -3   0  101.54    4.48
  -2  -3   0  105.71    4.78
   2   3   0  103.88    4.52
  -2  -3  -1  344.47   10.28
   2   3   1  330.73   10.12
  -2  -3  -1  349.80   10.64
   2   3   1  330.17    9.92
   2   3   2    7.83    1.50
  -2  -3  -2    8.98    1.52
   2   3   2    5.12    0.96
  -2  -3  -2    8.46    1.66
   2   3   3   35.54    2.53
   2   3   3   45.70    2.92
  -2  -3  -3   38.00    2.62
   2   3   3   42.17    2.61
  -2  -3  -3   40.20    2.86
  -2  -3  -3   41.76    1.74
  -2  -3  -3   43.45    2.91
  -2  -3  -4   57.66    3.50
  -2  -3  -4   62.61    3.72
   2   3   4   50.07    3.15
   2   3   4   62.73    3.67
  -2  -3  -4   66.02    3.49
  -2  -3  -4   57.95    3.41
  -2  -3  -5  113.28    5.56
  -2  -3  -5  112.41    5.09
   2   3   5  111.16    5.14
   2   3   5  119.93    5.41
   2   3   5  112.65    5.23
  -2  -3  -5  109.68    4.84
  -2  -3  -5  122.88    5.13
  -2  -3  -6  202.65    8.57
   2   3   6  206.55    7.99
   2   3   6  224.21    8.41
   2   3   6  215.00    8.01
  -2  -3  -6  218.57    9.21
   2   3   6  190.05    8.82
  -2  -3  -6  207.71    8.88
   2   3   6  205.87    8.59
  -2  -3  -6  221.17    7.34
   2   3   7   21.64    2.36
   2   3   7   22.42    2.43
   2   3   7   21.44    2.72
   2   3   7   23.62    2.30
   2   3   7   19.65    2.42
  -2  -3  -7   25.23    3.04
   2   3   7   18.96    2.70
  -2  -3  -7   20.29    2.58
  -2  -3  -7   22.47    2.83
  -2  -3  -8   92.38    5.96
   2   3   8   94.81    5.42
   2   3   8   87.63    5.37
  -2  -3  -8   92.42    5.90
   2   3   8   92.08    6.02
  -2  -3  -8   93.15    6.30
   2   3   8   85.95    5.55
   2   3   8   78.23    5.82
   2   3   8   87.93    5.64
   2   3   8   90.39    5.55
  -2  -3  -9    7.48    1.90
   2   3   9    6.40    1.48
  -2  -3  -9    3.84    1.55
   2   3   9    5.08    1.39
   2   3   9    8.93    2.17
   2   3   9    4.81    1.54
  -2  -3  -9    3.79    1.13
   2   3   9    5.84    1.54
   2   3   9    7.28    1.94
   2   3   9    4.10    1.51
  -2  -3  -9    4.26    1.31
   2   3  10   63.96    4.35
  -2  -3 -10   65.37    5.37
  -2  -3 -10   66.44    4.59
  -2  -3 -10   64.43    4.24
   2   3  10   55.85    4.23
   2   3  10   56.20    4.90
   2   3  10   57.48    4.69
   2   3  11   94.70    5.09
  -2  -3 -11   90.89    5.86
   2   3  11   96.18    5.89
   2   3  11   98.63    5.65
   2   3  11   87.34    4.74
  -2  -3 -12  111.75    5.62
   2   3  12  117.37    5.56
  -2  -4   9   56.86    2.75
  -2  -4   8   95.29    4.76
  -2  -4   8   80.53    3.99
  -2  -4   8   81.29    3.66
  -2  -4   8   94.85    4.89
  -2  -4   7    0.37    0.74
  -2  -4   7   -0.46    0.74
  -2  -4   7    1.07    0.85
  -2  -4   7    0.71    0.90
  -2  -4   7    1.28    0.92
  -2  -4   7    1.18    0.98
  -2  -4   6  219.00    9.57
  -2  -4   6  214.42    9.69
  -2  -4   6  228.15    9.96
  -2  -4   6  240.35   10.11
   2   4  -6  236.04    9.64
  -2  -4   6  248.61   10.64
  -2  -4   5   47.61    4.08
  -2  -4   5   48.03    4.15
  -2  -4   5   47.26    4.15
   2   4  -5   52.51    4.78
   2   4  -5   47.32    4.10
  -2  -4   5   53.52    4.49
  -2  -4   5   53.50    4.39
   2   4  -5   46.19    4.50
  -2  -4   4  703.93   21.85
  -2  -4   4  751.70   21.97
  -2  -4   4  736.82   22.04
   2   4  -4  788.71   23.60
  -2  -4   4  700.30   21.94
  -2  -4   4  714.28   22.17
   2   4  -4  698.79   22.75
   2   4  -3   -1.78    1.04
  -2  -4   3   -0.53    0.68
  -2  -4   3   -0.27    0.78
  -2  -4   3   -0.05    0.94
  -2  -4   3   -1.14    0.92
   2   4  -3    1.12    1.17
  -2  -4   3   -1.22    1.09
   2   4  -2   12.41    1.99
  -2  -4   2   15.97    2.03
  -2  -4   2   13.94    2.03
  -2  -4   2   15.50    2.15
  -2  -4   2   13.66    1.72
  -2  -4   2   10.74    1.79
   2   4  -2   14.71    2.21
  -2  -4   2   12.20    1.91
  -2  -4   2   12.60    1.78
   2   4  -1 1421.75   35.92
  -2  -4   1 1349.01   35.04
  -2  -4   1 1377.86   35.20
   2   4  -1 1392.74   33.83
  -2  -4   1 1379.67   34.56
  -2  -4   1 1386.04   35.47
  -2  -4   1 1300.79   35.02
  -2  -4   1 1395.17   35.24
   2   4  -1 1353.72   35.47
  -2  -4   0  111.16    5.37
   2   4   0  123.10    5.37
  -2  -4   0  110.32    5.68
   2   4   0  113.60    5.69
   2   4   1  214.22    7.93
   2   4   1  205.09    7.97
  -2  -4  -1  207.27    7.97
  -2  -4  -1  222.97    8.57
   2   4   2    7.81    1.34
  -2  -4  -2    7.16    1.41
   2   4   2    9.63    1.51
  -2  -4  -2    9.12    1.63
  -2  -4  -2    9.18    1.20
   2   4   3    1.85    0.82
   2   4   3    1.84    0.87
   2   4   3    1.12    0.88
  -2  -4  -3    1.66    0.84
  -2  -4  -3    2.61    1.04
  -2  -4  -3    1.29    0.53
  -2  -4  -4  405.69   13.27
   2   4   4  408.32   12.61
  -2  -4  -4  401.46   13.32
   2   4   4  402.64   12.89
  -2  -4  -4  381.91   12.63
   2   4   4  369.77   12.40
  -2  -4  -4  387.44   12.50
  -2  -4  -4  403.29   12.99
  -2  -4  -5   68.61    4.34
  -2  -4  -5   77.94    5.02
   2   4   5   68.99    4.26
  -2  -4  -5   57.45    3.79
  -2  -4  -5   69.47    4.72
  -2  -4  -5   70.46    4.33
   2   4   5   72.86    4.50
  -2  -4  -5   71.32    4.15
  -2  -4  -5   70.85    4.40
  -2  -4  -5   72.25    4.54
   2   4   5   67.24    4.64
  -2  -4  -6    0.66    0.67
  -2  -4  -6    0.04    0.91
   2   4   6   -0.28    0.75
   2   4   6   -0.46    0.63
  -2  -4  -6    0.55    0.83
  -2  -4  -6    1.43    0.87
  -2  -4  -6   -0.32    1.11
  -2  -4  -6   -0.79    0.73
   2   4   6   -0.38    1.09
  -2  -4  -6   -0.17    0.78
   2   4   6    1.53    0.88
  -2  -4  -7  266.56   11.39
   2   4   7  267.73   10.47
   2   4   7  268.49    9.94
  -2  -4  -7  275.47   11.67
   2   4   7  288.61   10.50
  -2  -4  -7  271.39   10.65
   2   4   7  255.32   11.30
  -2  -4  -7  258.62   10.62
   2   4   7  278.70    9.87
  -2  -4  -8  465.57   16.96
   2   4   8  482.56   15.88
   2   4   8  493.30   15.30
  -2  -4  -8  481.79   17.37
  -2  -4  -8  447.50   15.59
   2   4   8  471.75   17.08
   2   4   8  482.41   16.28
  -2  -4  -8  444.89   15.89
   2   4   8  496.91   16.49
   2   4   8  478.95   15.26
  -2  -4  -9    2.31    0.93
   2   4   9    0.68    0.73
   2   4   9   -0.05    0.83
  -2  -4  -9    0.24    0.74
   2   4   9    0.82    1.00
  -2  -4  -9    0.39    1.13
   2   4   9   -0.06    1.05
   2   4   9    1.38    1.13
  -2  -4  -9   -0.24    0.85
   2   4  10    1.80    0.84
  -2  -4 -10    4.95    1.30
  -2  -4 -10    4.31    1.17
  -2  -4 -10    3.28    1.50
   2   4  10    4.17    1.32
   2   4  10    3.28    1.50
   2   4  11   23.80    2.42
  -2  -4 -11   27.80    3.04
   2   4  11   26.54    2.78
   2   4  11   25.93    2.93
  -2  -4 -12    0.50    0.69
   2   4  12    0.26    0.73
  -2  -5   7   16.57    1.65
  -2  -5   7   23.66    2.14
  -2  -5   7   21.96    2.09
  -2  -5   7   16.88    1.69
  -2  -5   6   41.65    3.39
  -2  -5   6   42.42    3.46
  -2  -5   6   43.27    3.37
   2   5  -6   38.55    3.16
  -2  -5   6   43.27    3.39
  -2  -5   6   43.70    3.53
  -2  -5   5   33.19    3.31
  -2  -5   5   29.89    3.19
  -2  -5   5   33.91    3.40
  -2  -5   5   27.03    3.02
   2   5  -5   29.41    3.18
  -2  -5   5   28.55    3.13
   2   5  -4   30.48    3.69
  -2  -5   4   29.09    3.29
  -2  -5   4   33.49    3.48
  -2  -5   4   28.87    3.23
  -2  -5   4   30.32    3.30
   2   5  -4   27.49    3.56
  -2  -5   4   26.04    3.13
  -2  -5   3   80.46    5.47
   2   5  -3   97.45    6.50
  -2  -5   3   80.54    5.47
  -2  -5   3   81.55    5.75
   2   5  -3   78.00    5.90
  -2  -5   2  522.61   16.69
  -2  -5   2  486.99   16.86
  -2  -5   2  523.80   15.97
  -2  -5   2  535.74   17.49
  -2  -5   2  502.02   16.84
  -2  -5   2  536.27   17.26
  -2  -5   2  500.46   16.48
   2   5  -2  498.77   17.69
   2   5  -2  530.76   18.06
  -2  -5   1  152.97    7.63
  -2  -5   1  152.86    7.56
  -2  -5   1  148.31    7.42
  -2  -5   1  153.00    7.16
  -2  -5   1  155.19    7.76
  -2  -5   1  149.56    7.42
   2   5  -1  145.35    7.80
  -2  -5   1  149.10    7.59
   2   5  -1  148.61    7.89
   2   5   0   11.20    2.00
  -2  -5   0   10.39    1.83
  -2  -5   0   11.93    1.89
   2   5   0   11.99    1.68
  -2  -5   0   10.95    2.00
  -2  -5   0    8.97    1.66
  -2  -5   0   10.71    1.88
   2   5   0    9.70    1.89
  -2  -5   0    9.82    1.77
  -2  -5   0   11.57    2.04
  -2  -5  -1  510.51   15.88
  -2  -5  -1  498.59   15.89
   2   5   1  506.90   15.91
  -2  -5  -1  528.10   16.44
  -2  -5  -1  483.58   16.09
   2   5   1  496.86   15.81
  -2  -5  -1  504.45   16.08
  -2  -5  -1  484.97   16.42
  -2  -5  -1  522.83   17.05
   2   5   1  549.95   16.91
   2   5   2  295.96   11.15
  -2  -5  -2  306.59   11.55
  -2  -5  -2  314.80   11.04
  -2  -5  -2  284.69   10.98
   2   5   2  300.36   11.10
  -2  -5  -2  287.72   10.46
   2   5   2  282.99   10.80
  -2  -5  -2  275.24   10.72
   2   5   2  290.28   11.03
  -2  -5  -2  301.06   11.73
  -2  -5  -2  314.10   10.47
  -2  -5  -2  309.31   11.42
   2   5   3   13.41    2.12
  -2  -5  -3   13.81    2.22
  -2  -5  -3   10.63    1.85
   2   5   3   12.38    2.04
  -2  -5  -3   13.85    1.81
  -2  -5  -3   12.30    2.14
   2   5   3   13.56    2.04
  -2  -5  -3   12.12    1.96
  -2  -5  -3   15.50    2.06
   2   5   3   12.26    1.91
  -2  -5  -3   13.92    1.68
  -2  -5  -3   14.20    2.26
  -2  -5  -4   82.00    5.36
   2   5   4   84.79    5.23
   2   5   4   78.57    5.05
  -2  -5  -4   87.73    5.11
  -2  -5  -4   91.36    5.41
   2   5   4   90.30    5.52
  -2  -5  -4   83.22    5.12
   2   5   4   83.29    5.33
  -2  -5  -4   86.72    5.57
  -2  -5  -4   91.36    5.72
  -2  -5  -5   -0.40    0.74
  -2  -5  -5   -0.05    0.68
   2   5   5    0.04    0.97
  -2  -5  -5   -0.23    0.75
  -2  -5  -5    0.13    1.00
  -2  -5  -5    1.25    1.10
   2   5   5    0.06    0.74
   2   5   5    0.42    0.78
  -2  -5  -5    0.77    0.97
  -2  -5  -5    0.34    0.81
  -2  -5  -6   17.65    2.67
   2   5   6   11.98    2.01
   2   5   6   13.31    1.80
  -2  -5  -6   16.38    2.42
   2   5   6   15.60    2.43
  -2  -5  -6   17.02    2.38
  -2  -5  -6   16.26    2.35
  -2  -5  -6   16.92    2.68
  -2  -5  -6    8.14    1.72
   2   5   6   16.43    2.60
  -2  -5  -6   18.49    2.37
  -2  -5  -7    5.29    1.74
   2   5   7    5.58    1.39
  -2  -5  -7    4.34    1.44
  -2  -5  -7    3.36    1.45
   2   5   7    3.64    1.23
   2   5   7    5.10    1.56
   2   5   7    5.33    1.53
  -2  -5  -7    4.29    1.08
  -2  -5  -7    3.35    1.38
  -2  -5  -8  183.52    9.62
   2   5   8  174.97    8.48
  -2  -5  -8  180.42    9.44
   2   5   8  177.61    8.61
  -2  -5  -8  179.30    8.84
  -2  -5  -8  178.04    8.28
   2   5   8  168.86    9.06
   2   5   8  173.15    8.12
  -2  -5  -9  235.88   11.28
   2   5   9  228.96   10.02
  -2  -5  -9  241.81   11.17
  -2  -5  -9  239.39   10.29
  -2  -5  -9  243.88    9.68
   2   5   9  238.86   11.05
   2   5   9  245.12   10.40
   2   5   9  243.14   10.50
   2   5  10   42.65    3.58
  -2  -5 -10   39.34    3.93
  -2  -5 -10   43.49    3.57
  -2  -5 -10   40.09    3.03
   2   5  10   39.40    3.96
   2   5  10   36.77    3.46
   2   5  11    5.96    1.31
  -2  -5 -11    4.93    1.30
   2   5  11    8.08    1.57
   2   5  11    4.66    1.35
  -2  -5 -12   10.26    1.43
   2   5  12   10.05    1.24
   2   5  12    9.30    1.33
  -2  -6   6   -0.36    0.44
  -2  -6   6   -0.81    0.55
  -2  -6   6    0.24    0.51
   2   6  -5   12.00    1.64
  -2  -6   5   10.20    1.42
  -2  -6   5    8.83    1.50
  -2  -6   5   12.55    1.73
  -2  -6   5    9.35    1.49
  -2  -6   5    9.50    1.55
  -2  -6   4  259.10   10.13
  -2  -6   4  289.71   10.59
  -2  -6   4  278.54   10.55
   2   6  -4  258.34   10.45
  -2  -6   4  274.54   10.46
  -2  -6   4  270.25    9.87
  -2  -6   3  428.59   14.96
  -2  -6   3  414.74   14.55
  -2  -6   3  434.41   14.23
  -2  -6   3  446.90   15.19
  -2  -6   3  440.05   15.18
  -2  -6   2  171.29    7.88
  -2  -6   2  161.76    8.13
   2   6  -2  159.85    8.60
  -2  -6   2  154.26    8.27
  -2  -6   2  174.59    8.48
  -2  -6   2  171.77    8.17
   2   6  -2  166.15    9.02
   2   6  -1   14.65    2.71
  -2  -6   1   21.73    2.91
  -2  -6   1   21.77    2.90
  -2  -6   1   22.49    2.85
  -2  -6   1   20.20    2.88
  -2  -6   1   20.99    2.69
   2   6  -1   21.42    2.89
  -2  -6   1   23.46    2.94
  -2  -6   1   19.52    2.49
  -2  -6   1   21.11    2.77
  -2  -6   0  626.82   20.93
   2   6   0  636.51   20.38
  -2  -6   0  648.77   20.45
  -2  -6   0  632.65   19.97
  -2  -6   0  655.17   20.04
  -2  -6   0  636.78   20.07
   2   6   0  626.27   20.48
  -2  -6   0  670.12   21.34
  -2  -6   0  669.74   20.95
   2   6   0  642.84   21.29
   2   6   1   10.84    2.15
   2   6   1   13.20    2.16
  -2  -6  -1   16.97    2.92
   2   6   1   12.83    2.10
  -2  -6  -1   16.56    2.34
  -2  -6  -1   13.31    2.46
  -2  -6  -1   12.77    2.12
   2   6   1   14.59    2.30
  -2  -6  -1   15.45    2.40
  -2  -6  -1   12.51    2.23
   2   6   2   37.88    3.73
   2   6   2   31.34    3.18
   2   6   2   29.73    3.29
  -2  -6  -2   28.81    2.91
  -2  -6  -2   36.84    3.74
   2   6   2   31.79    3.33
  -2  -6  -2   40.55    3.61
  -2  -6  -2   32.64    3.73
  -2  -6  -2   35.48    3.55
   2   6   2   39.83    3.98
  -2  -6  -2   39.06    3.86
   2   6   3  188.87    9.02
  -2  -6  -3  217.26    9.95
   2   6   3  196.93    9.25
  -2  -6  -3  200.14    8.20
   2   6   3  196.85    9.14
  -2  -6  -3  200.83    8.74
   2   6   3  206.69    9.54
  -2  -6  -3  179.83    8.82
  -2  -6  -3  184.84    9.12
  -2  -6  -3  183.76    9.60
  -2  -6  -3  196.04    9.41
   2   6   4   22.69    2.92
  -2  -6  -4   21.99    2.65
   2   6   4   25.59    3.05
  -2  -6  -4   27.28    3.25
   2   6   4   26.52    3.13
  -2  -6  -4   20.40    3.00
   2   6   4   29.28    3.32
  -2  -6  -4   25.61    3.27
  -2  -6  -4   22.81    2.96
   2   6   5  526.88   18.00
   2   6   5  542.77   17.87
  -2  -6  -5  520.84   18.10
   2   6   5  522.89   18.02
  -2  -6  -5  519.28   18.38
   2   6   5  536.44   18.16
  -2  -6  -5  547.44   17.89
  -2  -6  -5  521.77   16.96
  -2  -6  -5  544.93   18.69
  -2  -6  -6  107.07    6.61
   2   6   6   93.17    6.00
  -2  -6  -6   91.76    6.22
  -2  -6  -6   94.02    6.52
   2   6   6   98.15    6.26
  -2  -6  -6   79.52    5.13
   2   6   6  100.00    6.50
  -2  -6  -6   91.49    5.80
   2   6   6   90.77    5.43
  -2  -6  -6   94.40    6.27
   2   6   7    0.86    1.10
  -2  -6  -7    1.47    0.87
   2   6   7   -0.06    0.82
  -2  -6  -7   -1.00    1.06
  -2  -6  -7    0.99    1.01
   2   6   7    0.11    0.76
   2   6   7    0.11    1.06
  -2  -6  -7    1.41    1.02
   2   6   7    0.99    1.07
   2   6   8   74.01    5.13
  -2  -6  -8   62.41    5.20
  -2  -6  -8   65.00    5.01
   2   6   8   68.01    5.30
   2   6   8   68.77    4.72
   2   6   9  119.32    5.86
   2   6   9  133.69    6.83
  -2  -6  -9  127.72    7.27
  -2  -6  -9  133.93    6.91
   2   6   9  125.94    7.16
   2   6   9  111.05    6.09
   2   6   9  128.90    6.72
   2   6  10   94.41    5.21
  -2  -6 -10   97.99    5.16
   2   6  10   93.52    5.56
   2   6  10   83.82    4.72
   2   6  10   92.84    5.16
  -2  -6 -10   87.27    5.41
   2   6  11  100.80    4.99
   2   6  11   87.34    4.14
  -2  -6 -11   99.74    5.00
   2   6  12  139.59    4.90
   2   7  -4   13.03    1.42
  -2  -7   4   12.35    1.41
  -2  -7   4   13.80    1.46
  -2  -7   4   14.50    1.51
  -2  -7   4   10.40    1.22
   2   7  -3    1.46    0.97
  -2  -7   3    0.64    0.60
  -2  -7   3    1.16    0.69
  -2  -7   3    1.39    0.86
  -2  -7   3    0.25    0.70
   2   7  -2   26.83    2.46
  -2  -7   2   26.59    2.52
  -2  -7   2   28.73    2.81
  -2  -7   2   31.48    2.90
   2   7  -1   23.16    2.54
  -2  -7   1   18.98    2.40
  -2  -7   1   21.75    2.57
  -2  -7   1   22.76    2.73
   2   7  -1   18.09    2.17
  -2  -7   1   27.30    2.70
  -2  -7   1   18.69    2.13
  -2  -7   1   23.33    2.69
   2   7   0   20.08    2.50
  -2  -7   0   21.93    2.86
  -2  -7   0   17.65    2.46
  -2  -7   0   19.28    2.49
  -2  -7   0   20.38    2.42
  -2  -7   0   19.68    2.60
  -2  -7   0   20.51    2.50
  -2  -7   0   23.21    2.91
  -2  -7  -1   52.88    4.68
   2   7   1   49.77    4.12
  -2  -7  -1   48.38    4.10
  -2  -7  -1   50.94    3.97
  -2  -7  -1   47.58    4.12
  -2  -7  -1   53.17    4.49
  -2  -7  -1   50.50    3.87
  -2  -7  -1   53.29    3.97
   2   7   2   93.99    6.41
  -2  -7  -2   90.30    6.43
   2   7   2   94.77    5.89
  -2  -7  -2   96.63    5.37
  -2  -7  -2   91.09    6.02
  -2  -7  -2   99.96    6.34
  -2  -7  -2   94.46    5.40
  -2  -7  -2   91.52    5.83
  -2  -7  -2   97.83    5.27
  -2  -7  -2   92.84    6.60
  -2  -7  -3  104.40    6.97
   2   7   3  107.01    6.76
   2   7   3   94.03    5.97
   2   7   3   86.44    5.99
  -2  -7  -3   92.17    4.99
   2   7   3   92.47    5.93
  -2  -7  -3   92.03    5.89
  -2  -7  -3   99.74    6.38
  -2  -7  -3   98.86    6.40
  -2  -7  -3   94.45    6.74
  -2  -7  -3   97.05    5.45
   2   7   4    0.64    1.02
   2   7   4    0.93    1.02
  -2  -7  -4    1.99    1.24
   2   7   4   -0.52    1.42
  -2  -7  -4    3.09    1.13
  -2  -7  -4    2.50    1.33
   2   7   4    2.78    1.18
  -2  -7  -4    1.63    1.18
  -2  -7  -4    3.88    1.05
  -2  -7  -4    3.44    1.44
  -2  -7  -5    0.06    0.67
  -2  -7  -5   -0.77    1.19
   2   7   5   -0.34    1.24
   2   7   5   -0.15    0.89
  -2  -7  -5   -0.38    0.99
  -2  -7  -5    2.23    1.15
   2   7   5    0.48    0.78
  -2  -7  -5    1.99    1.25
  -2  -7  -5   -1.58    1.36
  -2  -7  -6   60.77    4.96
   2   7   6   82.67    5.35
  -2  -7  -6   79.84    5.66
  -2  -7  -6   51.75    4.39
   2   7   6   78.36    5.53
  -2  -7  -6   70.86    4.80
  -2  -7  -6   78.16    5.48
  -2  -7  -7   84.88    5.43
   2   7   7   92.81    5.65
  -2  -7  -7   94.55    6.09
   2   7   7   81.32    5.66
  -2  -7  -7   88.95    5.24
  -2  -7  -7   92.60    5.88
   2   7   8    4.13    1.33
  -2  -7  -8    6.17    1.63
   2   7   8    4.30    1.42
  -2  -7  -8    2.40    1.08
   2   7   9   12.00    1.72
  -2  -7  -9   12.20    1.80
  -2  -7  -9   13.18    1.94
   2   7   9   12.69    1.61
   2   7   9    9.53    1.59
   2   7   9   12.63    1.92
  -2  -7  -9   11.56    1.45
  -2  -7 -10   16.06    1.86
   2   7  10   12.90    1.69
  -2  -7 -10   11.09    1.36
   2   7  11    1.73    0.58
  -2  -8   2  167.94    5.38
   2   8  -2  153.43    5.48
  -2  -8   1  353.16   10.42
   2   8  -1  322.93   10.58
  -2  -8   1  332.71    9.74
  -2  -8   1  356.67   10.29
   2   8   0    0.59    0.63
  -2  -8   0   -0.05    0.50
   2   8   1    6.20    1.28
  -2  -8  -1    5.78    1.35
  -2  -8  -1    7.08    1.37
  -2  -8  -1    4.24    0.99
   2   8   1    6.68    1.33
  -2  -8  -2   51.82    4.12
   2   8   2   58.45    3.74
  -2  -8  -2   58.05    4.11
  -2  -8  -2   68.01    4.33
   2   8   2   51.54    3.84
  -2  -8  -2   55.31    3.68
  -2  -8  -3   10.68    2.03
   2   8   3   10.34    1.85
  -2  -8  -3   11.22    1.67
  -2  -8  -3   13.54    2.03
   2   8   3   15.44    1.94
   2   8   4    0.62    0.70
  -2  -8  -4   -0.17    0.77
  -2  -8  -4    1.40    1.04
  -2  -8  -4    0.81    0.57
  -2  -8  -4    0.24    0.66
   2   8   5    1.30    0.78
  -2  -8  -5    1.58    0.83
  -2  -8  -5    1.40    0.95
  -2  -8  -5    1.26    0.90
   2   8   5    0.23    0.72
  -2  -8  -5    0.58    0.62
  -2  -8  -6  213.04    8.86
   2   8   6  223.75    8.55
  -2  -8  -6  210.20    7.62
  -2  -8  -6  217.01    8.57
   2   8   6  223.65    8.74
   2   8   6  211.47    8.37
  -2  -8  -6  229.78    8.87
   2   8   7  210.37    7.76
   2   8   7  194.88    7.63
  -2  -8  -7  208.21    7.90
   2   8   7  194.71    7.82
   2   8   7  184.98    7.03
  -2  -8  -7  183.11    6.45
   2   8   8   37.04    2.65
   2   8   8   40.48    2.90
  -2  -8  -8   41.27    2.79
   2   8   9   14.86    1.46
   2   8   9   10.72    1.11
  -2  -8  -9   12.98    1.23
  -2  -9  -3    4.79    0.74
  -2  -9  -4    7.17    0.92
   2   9   4    5.33    0.86
  -2  -9  -5   36.86    2.10
   2   9   5   33.37    2.04
  -3   6   6    0.08    0.38
  -3   6   6    0.22    0.44
  -3   6   5    0.92    0.66
  -3   6   5   -0.64    0.62
  -3   6   5   -0.09    0.50
  -3   6   4   61.07    3.68
  -3   6   4   67.78    3.89
  -3   6   4   64.34    3.32
  -3   6   3    5.33    1.21
   3  -6  -3    5.49    1.23
   3  -6  -3    3.81    0.76
  -3   6   2    0.30    0.73
   3  -6  -2    0.35    0.62
   3  -6  -2    0.17    0.48
  -3   6   1  275.17    9.44
   3  -6  -1  269.67    8.89
  -3   6   0   73.89    3.54
  -3   6   0   88.95    3.84
  -3   6   0   84.01    4.00
   3  -6   0   85.13    3.99
   3  -6   1  141.30    5.24
  -3   6  -1  146.37    5.16
  -3   5   9   13.30    1.23
  -3   5   8    7.40    1.14
  -3   5   8    9.54    1.29
  -3   5   8    8.95    1.33
  -3   5   8    9.17    1.12
  -3   5   7    3.54    1.04
  -3   5   7    4.90    1.21
  -3   5   7    1.80    0.73
  -3   5   7    2.71    0.83
   3  -5  -7    3.46    0.98
   3  -5  -6    1.12    0.70
  -3   5   6    0.58    0.69
  -3   5   6    0.55    0.84
  -3   5   6    0.71    0.71
  -3   5   6    1.39    0.85
   3  -5  -6    3.28    1.24
  -3   5   6    0.96    0.73
  -3   5   5   25.52    2.87
  -3   5   5   23.19    2.65
   3  -5  -5   25.25    2.62
  -3   5   5   24.01    2.67
  -3   5   5   23.37    2.59
  -3   5   5   25.09    2.47
  -3   5   4  112.81    6.40
   3  -5  -4  109.29    6.13
  -3   5   4  115.69    6.51
  -3   5   4  109.68    6.06
  -3   5   4  105.48    5.90
  -3   5   4  105.19    5.30
  -3   5   3    5.19    1.48
  -3   5   3    5.13    1.37
  -3   5   3    4.25    1.34
   3  -5  -3    2.70    1.16
  -3   5   3    5.24    1.51
  -3   5   2   20.57    2.67
  -3   5   2   15.46    2.06
  -3   5   2   15.88    2.50
   3  -5  -2   14.39    2.30
  -3   5   2   18.12    2.31
  -3   5   1   16.78    2.64
   3  -5  -1   17.18    2.38
  -3   5   1   16.74    2.28
  -3   5   0   75.00    5.16
   3  -5   0   75.69    5.03
   3  -5   0   80.78    5.08
  -3   5  -1    1.46    0.85
   3  -5   1    2.83    0.99
   3  -5   1    2.38    0.99
  -3   5  -2   12.48    1.48
   3  -5   2    9.97    1.68
  -3   5  -2   16.07    1.90
  -3   5  -2   12.03    1.64
   3  -5   3   30.11    2.66
  -3   5  -3   31.13    2.45
  -3   5  -4   -0.33    0.46
   3  -5   4    0.73    0.61
  -3   4  10   41.42    2.21
  -3   4   9    1.46    0.65
  -3   4   9    0.08    0.57
  -3   4   9    1.30    0.68
   3  -4  -9   -0.17    0.54
  -3   4   9   -0.37    0.47
  -3   4   9    0.42    0.60
  -3   4   8   17.16    2.07
   3  -4  -8   20.36    2.35
  -3   4   8   19.48    2.28
  -3   4   8   18.64    2.25
  -3   4   8   20.87    2.40
  -3   4   8   19.69    2.31
  -3   4   7   71.60    4.78
   3  -4  -7   72.46    4.75
  -3   4   7   72.40    4.92
  -3   4   7   74.69    4.52
  -3   4   7   74.00    4.99
  -3   4   7   65.35    4.65
  -3   4   7   78.76    5.18
  -3   4   6   13.48    2.20
  -3   4   6   10.50    2.06
  -3   4   6   12.12    2.18
  -3   4   6   12.10    1.87
   3  -4  -6   11.81    1.87
  -3   4   6   11.39    2.04
   3  -4  -6   11.05    1.98
  -3   4   6   10.93    1.97
  -3   4   5   66.68    5.02
   3  -4  -5   64.48    4.63
   3  -4  -5   64.91    5.32
  -3   4   5   73.31    5.08
  -3   4   5   66.16    5.10
   3  -4  -5   67.29    4.68
  -3   4   5   64.84    5.05
  -3   4   5   62.65    4.68
  -3   4   5   64.67    4.76
  -3   4   5   59.82    4.88
   3  -4  -4   53.02    4.05
  -3   4   4   46.34    4.25
  -3   4   4   50.55    4.41
  -3   4   4   45.82    4.29
   3  -4  -4   47.43    4.08
  -3   4   4   49.91    4.40
  -3   4   4   50.90    4.27
   3  -4  -4   48.28    4.59
  -3   4   4   44.27    3.85
  -3   4   3   14.76    2.48
   3  -4  -3   11.13    2.14
  -3   4   3   12.49    2.28
  -3   4   3   11.92    2.33
   3  -4  -3   12.35    2.24
  -3   4   3   11.56    2.13
  -3   4   3   13.24    2.29
  -3   4   3   19.78    2.51
   3  -4  -3   13.50    2.22
  -3   4   2  468.60   16.80
  -3   4   2  472.12   16.59
  -3   4   2  452.01   16.85
  -3   4   2  468.96   16.52
  -3   4   2  476.08   15.96
   3  -4  -2  462.84   17.09
   3  -4  -2  500.17   16.19
  -3   4   1   78.24    5.66
   3  -4  -1   76.36    5.74
  -3   4   1   76.34    5.80
  -3   4   1   73.90    5.43
  -3   4   1   73.14    5.37
  -3   4   1   79.91    5.02
  -3   4   0   36.66    3.86
  -3   4   0   31.23    3.42
   3  -4   0   39.56    3.81
  -3   4   0   35.78    3.90
  -3   4   0   35.46    3.65
   3  -4   0   34.46    3.81
  -3   4  -1  288.30   11.93
  -3   4  -1  321.08   12.72
   3  -4   1  324.49   12.14
   3  -4   1  303.47   12.68
   3  -4   2  149.72    7.19
  -3   4  -2  144.77    7.55
   3  -4   2  147.22    7.91
  -3   4  -2  147.40    7.23
   3  -4   3    3.98    1.42
  -3   4  -3    3.88    1.18
  -3   4  -3    2.19    0.80
  -3   4  -3    3.37    1.16
  -3   4  -4   27.38    2.44
   3  -4   4   33.95    3.37
  -3   4  -4   29.56    2.84
  -3   4  -4   28.15    2.96
  -3   4  -5    7.92    1.33
   3  -4   5    9.45    1.65
  -3   4  -5    9.40    1.60
   3  -4   6  151.24    6.24
  -3   4  -6  153.57    6.03
  -3   3  10  112.32    4.61
   3  -3 -10   96.60    4.68
  -3   3  10  109.04    4.94
  -3   3   9  164.97    6.97
  -3   3   9  143.99    6.91
  -3   3   9  141.42    6.41
   3  -3  -9  140.65    6.80
  -3   3   9  154.08    6.51
  -3   3   8   61.19    4.74
  -3   3   8   68.34    4.71
  -3   3   8   61.74    4.46
  -3   3   8   68.29    4.30
   3  -3  -8   58.01    4.51
  -3   3   8   58.29    4.42
  -3   3   8   65.08    4.06
   3  -3  -7   19.63    2.71
  -3   3   7   15.04    2.36
  -3   3   7   18.44    2.19
  -3   3   7   20.17    2.89
  -3   3   7   18.60    2.61
  -3   3   7   19.88    2.36
  -3   3   7   18.56    2.58
  -3   3   7   17.22    2.16
   3  -3  -7   16.47    2.71
   3  -3  -6    0.79    0.78
  -3   3   6   -0.11    0.85
  -3   3   6    2.04    1.01
  -3   3   6    1.17    0.96
  -3   3   6    2.24    1.09
  -3   3   6    1.14    1.18
   3  -3  -6   -0.19    0.81
  -3   3   6    1.09    1.06
  -3   3   6    1.61    1.05
   3  -3  -6   -0.26    0.81
  -3   3   5   22.62    2.99
  -3   3   5   16.11    2.52
  -3   3   5   20.03    2.57
  -3   3   5   24.88    3.24
  -3   3   5   15.37    2.37
  -3   3   5   19.70    2.48
   3  -3  -5   10.94    2.07
  -3   3   5   19.53    2.67
  -3   3   5   21.64    2.54
   3  -3  -5   17.99    2.75
   3  -3  -4   20.43    2.56
  -3   3   4   21.58    2.76
  -3   3   4   20.33    2.75
  -3   3   4   20.63    2.86
  -3   3   4   21.39    2.81
  -3   3   4   19.53    2.84
  -3   3   4   18.33    2.39
  -3   3   4   23.51    2.78
  -3   3   4   21.82    2.57
   3  -3  -4   17.72    2.69
   3  -3  -3  210.44   10.02
  -3   3   3  232.80    9.94
   3  -3  -3  231.86    9.97
  -3   3   3  228.30   10.10
  -3   3   3  217.00    9.76
  -3   3   3  212.27    9.79
  -3   3   3  214.55    9.45
  -3   3   3  211.25    9.11
  -3   3   3  225.54    9.02
  -3   3   3  211.30    9.56
  -3   3   2    0.80    1.13
  -3   3   2    3.26    1.30
  -3   3   2    2.21    1.19
  -3   3   2    1.39    1.03
  -3   3   2    0.88    0.75
  -3   3   2    0.75    0.75
   3  -3  -2    2.02    1.02
  -3   3   2    2.21    1.13
   3  -3  -2    1.73    0.96
  -3   3   1   63.59    4.73
  -3   3   1   58.19    4.21
  -3   3   1   50.63    4.30
  -3   3   1   49.12    4.41
  -3   3   1   53.32    4.29
   3  -3  -1   58.05    4.44
   3  -3  -1   56.49    4.57
  -3   3   0  316.11   12.18
   3  -3   0  321.32   11.91
  -3   3   0  293.62   12.17
  -3   3   0  307.33   12.05
  -3   3   0  285.38   11.55
   3  -3   0  290.28   11.91
  -3   3  -1  170.79    8.61
  -3   3  -1  179.65    8.83
  -3   3  -1  188.80    8.86
   3  -3   1  173.13    8.47
  -3   3  -1  157.22    7.98
   3  -3   1  195.48    8.70
  -3   3  -2  282.49   11.33
   3  -3   2  263.22   11.24
  -3   3  -2  251.32   11.01
  -3   3  -2  260.93   10.56
  -3   3  -2  264.27   10.74
   3  -3   2  274.81   11.06
   3  -3   2  242.74   10.63
  -3   3  -3   56.74    4.19
  -3   3  -3   64.67    4.69
   3  -3   3   58.33    4.89
   3  -3   3   60.19    4.16
  -3   3  -3   63.61    4.95
   3  -3   3   63.60    4.87
   3  -3   3   65.93    4.88
  -3   3  -4  170.34    8.03
   3  -3   4  186.21    9.28
  -3   3  -4  177.63    9.00
   3  -3   4  185.32    8.95
  -3   3  -5    0.12    0.72
  -3   3  -5    0.85    0.73
   3  -3   5    0.67    0.93
  -3   3  -5   -0.50    0.95
   3  -3   6  188.01    8.69
  -3   3  -6  196.49    8.85
  -3   3  -7    2.59    0.71
   3  -3   7    1.76    0.93
  -3   3  -7    2.69    1.08
   3  -3   8   50.59    3.00
  -3   3  -8   57.10    3.18
  -3   2  11    7.31    1.02
   3  -2 -11   10.21    1.16
  -3   2  10  104.07    5.34
   3  -2 -10  111.08    5.45
  -3   2  10   97.91    4.66
  -3   2   9   25.12    2.66
  -3   2   9   23.29    2.42
  -3   2   9   27.24    2.61
  -3   2   9   27.45    3.02
  -3   2   9   30.64    2.86
  -3   2   9   21.89    2.15
  -3   2   8    1.91    1.15
  -3   2   8    0.35    0.92
  -3   2   8    0.40    0.91
  -3   2   8   -0.54    0.94
  -3   2   8    0.95    0.86
  -3   2   8    1.10    0.87
  -3   2   8    0.62    1.05
   3  -2  -7  123.79    7.08
  -3   2   7  127.83    7.16
  -3   2   7  130.91    7.36
  -3   2   7  149.71    7.74
  -3   2   7  140.05    7.32
  -3   2   7  139.28    6.86
  -3   2   7  136.67    7.07
  -3   2   7  133.75    7.73
   3  -2  -7  137.31    7.99
   3  -2  -6  116.73    6.54
  -3   2   6  126.13    6.59
  -3   2   6  118.84    6.78
  -3   2   6  123.07    7.36
  -3   2   6  131.45    7.14
  -3   2   6  134.91    7.36
  -3   2   6  132.58    6.98
  -3   2   6  139.12    7.49
  -3   2   6  116.46    6.74
   3  -2  -6  130.87    7.65
   3  -2  -5   67.72    4.38
  -3   2   5   67.73    5.05
  -3   2   5   66.34    4.46
  -3   2   5   69.67    4.87
  -3   2   5   63.96    5.02
  -3   2   5   63.04    4.11
  -3   2   5   67.78    4.87
  -3   2   5   64.15    4.68
  -3   2   5   69.57    4.39
  -3   2   5   63.36    4.71
  -3   2   5   65.02    4.74
   3  -2  -5   67.01    5.18
  -3   2   4   41.01    3.08
  -3   2   4   41.94    3.64
  -3   2   4   45.53    3.80
  -3   2   4   39.11    3.81
  -3   2   4   43.19    3.42
  -3   2   4   40.48    3.53
  -3   2   4   43.44    3.70
  -3   2   4   42.60    3.80
  -3   2   4   39.10    3.51
   3  -2  -4   42.58    3.90
  -3   2   3    3.06    1.05
  -3   2   3    4.66    1.30
  -3   2   3    4.79    1.37
  -3   2   3    5.06    1.24
  -3   2   3    9.47    1.58
  -3   2   3    6.76    1.49
  -3   2   3    7.15    1.51
  -3   2   3    4.75    1.34
   3  -2  -3    4.97    1.36
  -3   2   2  317.87   11.36
  -3   2   2  333.14   12.11
  -3   2   2  334.00   11.80
  -3   2   2  313.84   11.81
  -3   2   2  337.82   11.62
  -3   2   2  314.50   11.17
  -3   2   2  332.84   11.78
  -3   2   2  312.66   11.48
  -3   2   2  323.32   11.69
   3  -2  -2  309.35   11.71
  -3   2   1  683.25   19.65
  -3   2   1  674.28   20.13
  -3   2   1  657.52   19.74
   3  -2  -1  658.78   19.56
  -3   2   1  644.08   19.26
   3  -2  -1  673.41   19.77
  -3   2   1  639.72   18.58
  -3   2   1  660.16   19.26
  -3   2   1  637.34   19.02
  -3   2   0    2.70    1.13
   3  -2   0    1.29    0.90
  -3   2   0    2.09    1.09
  -3   2   0    2.11    1.09
  -3   2   0    1.96    1.09
  -3   2   0    1.83    0.95
   3  -2   0    2.32    1.00
  -3   2   0    0.79    0.75
  -3   2  -1   11.09    1.87
   3  -2   1   11.99    1.91
  -3   2  -1   12.86    2.15
  -3   2  -1   12.60    2.01
  -3   2  -1   14.68    2.05
   3  -2   1   10.60    1.76
   3  -2   2  515.24   16.17
  -3   2  -2  513.90   16.89
  -3   2  -2  519.78   15.42
  -3   2  -2  528.41   16.95
  -3   2  -2  520.88   16.17
  -3   2  -2  510.14   16.50
   3  -2   2  524.68   16.80
  -3   2  -3    7.90    1.72
  -3   2  -3    7.93    1.50
   3  -2   3    7.09    1.71
  -3   2  -3    3.98    1.11
  -3   2  -3    6.18    1.42
   3  -2   3    7.39    1.70
   3  -2   3    5.69    1.29
   3  -2   4  355.44   12.23
  -3   2  -4  328.41   12.78
  -3   2  -4  355.50   12.82
   3  -2   4  354.03   13.59
  -3   2  -4  356.47   13.79
   3  -2   4  341.11   13.30
  -3   2  -5   48.64    4.36
  -3   2  -5   45.28    4.44
  -3   2  -5   42.54    3.62
   3  -2   5   50.46    4.55
  -3   2  -5   42.61    3.90
   3  -2   5   46.71    3.85
   3  -2   5   40.64    4.05
   3  -2   6  190.14    8.67
  -3   2  -6  191.14    8.01
   3  -2   6  187.99    9.52
   3  -2   6  187.50    9.35
  -3   2  -6  178.54    8.47
  -3   2  -6  194.02    9.68
  -3   2  -6  202.90   10.02
   3  -2   7  297.03   11.50
   3  -2   7  321.34   12.64
  -3   2  -7  293.74   10.91
   3  -2   8   41.95    3.33
   3  -2   8   42.65    3.63
   3  -2   9   25.08    1.92
  -3   2  -9   31.08    2.52
   3  -2   9   33.35    2.60
   3  -1 -11    7.36    1.10
  -3   1  11    7.43    1.08
  -3   1  11    7.40    1.02
  -3   1  10    1.57    0.80
  -3   1  10    2.27    0.93
  -3   1  10    1.24    0.58
  -3   1   9    3.15    1.31
  -3   1   9    5.33    1.20
  -3   1   9    3.01    1.27
  -3   1   9    5.80    1.30
  -3   1   9    5.06    1.30
  -3   1   9    2.77    1.01
   3  -1  -8    0.95    1.10
  -3   1   8    3.99    1.23
  -3   1   8    4.45    1.42
  -3   1   8    1.51    0.87
  -3   1   8    5.49    1.48
  -3   1   8    2.50    1.42
  -3   1   8    1.73    1.08
  -3   1   8    3.32    1.27
  -3   1   8    1.51    0.98
   3  -1  -8    1.84    0.79
   3  -1  -7   51.43    4.47
  -3   1   7   50.12    4.53
  -3   1   7   44.92    3.78
  -3   1   7   59.74    4.22
  -3   1   7   46.17    4.03
  -3   1   7   52.62    4.63
  -3   1   7   53.15    4.41
  -3   1   7   58.68    4.54
  -3   1   7   53.56    4.35
   3  -1  -7   58.58    4.95
   3  -1  -6   36.30    3.48
  -3   1   6   30.23    3.03
  -3   1   6   36.43    3.14
  -3   1   6   29.68    3.44
  -3   1   6   36.88    3.54
  -3   1   6   33.50    2.95
  -3   1   6   36.51    3.51
  -3   1   6   30.70    3.35
  -3   1   6   33.26    3.32
  -3   1   6   31.74    3.43
   3  -1  -6   32.97    3.60
   3  -1  -5    8.71    1.79
   3  -1  -5    8.02    1.50
  -3   1   5    8.41    1.58
  -3   1   5   11.01    2.05
  -3   1   5   11.23    1.96
  -3   1   5    8.04    1.60
  -3   1   5    8.59    1.80
  -3   1   5    9.79    1.54
  -3   1   5    8.43    1.68
  -3   1   5    9.74    1.80
  -3   1   5    9.79    1.73
  -3   1   5    8.14    1.23
  -3   1   5    8.64    1.75
   3  -1  -4    0.71    0.73
  -3   1   4    0.54    0.55
  -3   1   4    0.18    0.95
  -3   1   4   -0.21    0.76
  -3   1   4   -0.60    0.81
  -3   1   4    0.78    0.88
   3  -1  -4   -0.14    0.82
  -3   1   4   -0.06    0.91
  -3   1   4   -0.95    0.80
  -3   1   4   -0.33    0.73
  -3   1   4    0.67    0.68
  -3   1   4   -0.62    0.59
  -3   1   4    1.76    0.88
  -3   1   4    0.06    0.60
   3  -1  -3  111.59    4.84
  -3   1   3  109.57    4.98
  -3   1   3  103.97    5.74
  -3   1   3  116.38    5.59
  -3   1   3  116.09    6.02
  -3   1   3  116.41    5.40
  -3   1   3  101.66    5.50
  -3   1   3  104.30    5.33
  -3   1   3  124.38    5.95
  -3   1   3  110.83    5.76
  -3   1   3  112.90    5.86
   3  -1  -3  109.62    5.78
   3  -1  -2  331.77    9.52
  -3   1   2  358.11   11.46
  -3   1   2  336.26   11.04
   3  -1  -2  329.51   11.34
  -3   1   1   32.27    2.73
  -3   1   1   31.33    2.67
   3  -1  -1   29.63    2.56
  -3   1   0   23.03    2.31
  -3   1   0   22.47    2.23
   3  -1   0   23.38    2.20
   3  -1   0   21.67    2.29
  -3   1  -1   14.18    1.85
  -3   1  -1   11.95    1.66
   3  -1   1   14.66    1.93
   3  -1   1   14.27    1.70
   3  -1   2   29.98    2.27
  -3   1  -2   32.94    2.79
  -3   1  -2   34.71    2.93
   3  -1   2   31.03    2.47
  -3   1  -2   30.03    2.51
  -3   1  -2   32.17    2.69
   3  -1   2   29.25    2.77
   3  -1   3   35.88    2.84
  -3   1  -3   34.75    2.92
  -3   1  -3   36.16    3.19
   3  -1   3   41.59    3.47
  -3   1  -3   46.29    3.58
  -3   1  -3   39.78    3.22
   3  -1   3   42.07    3.46
  -3   1  -3   43.69    3.10
  -3   1  -3   44.95    3.63
   3  -1   3   41.30    2.91
   3  -1   4    1.83    0.87
  -3   1  -4    1.70    0.70
  -3   1  -4    3.51    1.33
   3  -1   4    1.96    0.85
   3  -1   4    3.80    1.32
  -3   1  -4    5.51    1.36
  -3   1  -4    2.67    1.20
   3  -1   5  148.91    7.44
  -3   1  -5  164.34    8.38
  -3   1  -5  159.62    7.61
   3  -1   5  161.92    8.35
  -3   1  -5  157.94    7.75
   3  -1   5  175.37    7.80
  -3   1  -5  168.75    8.68
   3  -1   5  164.97    8.36
  -3   1  -6   10.31    2.15
   3  -1   6   12.69    2.17
   3  -1   6   10.71    1.99
  -3   1  -6   10.61    1.80
   3  -1   6   12.77    2.40
   3  -1   6   12.13    2.22
  -3   1  -6    8.50    2.22
  -3   1  -7   20.06    3.05
   3  -1   7   18.14    2.59
   3  -1   7   16.28    2.55
  -3   1  -7   22.69    2.45
  -3   1  -7   19.50    2.58
   3  -1   7   19.53    2.95
   3  -1   7   18.49    2.90
  -3   1  -7   17.06    2.92
   3  -1   8  158.35    8.02
   3  -1   8  172.14    8.70
  -3   1  -8  163.32    7.32
  -3   1  -8  160.72    8.62
   3  -1   9  131.66    6.64
   3  -1   9  126.59    6.21
  -3   1  -9  130.26    6.45
   3  -1   9  148.87    7.20
  -3   1  -9  139.44    7.08
   3  -1  10    8.48    1.17
  -3   1 -10   12.93    1.48
   3  -1  10   14.41    1.74
  -3   1 -10   11.09    1.56
  -3   0  11  198.20    6.29
  -3   0  11  187.56    6.28
  -3   0  10   54.37    3.69
  -3   0  10   49.58    3.17
  -3   0  10   52.53    3.65
  -3   0   9  411.02   14.45
  -3   0   9  415.98   13.34
  -3   0   9  400.00   13.76
  -3   0   9  411.95   14.58
   3   0  -8   34.94    3.77
  -3   0   8   38.33    3.93
  -3   0   8   34.57    3.17
  -3   0   8   42.01    3.53
  -3   0   8   38.65    3.73
  -3   0   8   39.72    3.60
  -3   0   8   36.28    3.81
   3   0  -8   39.86    4.07
   3   0  -7   61.65    4.91
  -3   0   7   68.84    4.73
  -3   0   7   63.94    4.62
  -3   0   7   69.22    4.57
  -3   0   7   59.24    4.86
  -3   0   7   54.57    4.63
  -3   0   7   64.95    4.79
  -3   0   7   58.11    4.98
   3   0  -6  179.65    8.56
  -3   0   6  199.69    8.13
  -3   0   6  183.00    8.84
  -3   0   6  173.74    8.76
  -3   0   6  188.05    8.59
  -3   0   6  187.75    8.53
  -3   0   6  189.09    7.95
  -3   0   6  197.87    8.20
  -3   0   6  193.79    8.75
  -3   0   6  184.67    9.07
   3   0  -5   31.08    2.97
  -3   0   5   32.35    3.21
  -3   0   5   30.99    2.69
  -3   0   5   33.47    3.34
  -3   0   5   34.55    2.92
  -3   0   5   35.72    3.26
  -3   0   5   31.77    2.81
  -3   0   5   28.51    3.08
  -3   0   5   29.67    3.01
  -3   0   5   34.32    3.43
   3   0  -4    1.20    0.52
  -3   0   4    3.23    0.83
  -3   0   4    1.13    0.69
  -3   0   4    1.53    0.87
  -3   0   4    4.35    0.95
  -3   0   4    2.22    0.75
  -3   0   4    0.02    0.75
  -3   0   4    1.83    0.94
  -3   0   4    2.42    1.12
  -3   0   4    2.38    0.97
  -3   0   4    1.37    0.74
  -3   0   4    1.80    0.85
   3   0  -3   83.82    4.14
  -3   0   3   89.92    4.33
  -3   0   3   88.87    4.44
   3   0  -2  136.32    5.06
  -3   0   2  143.83    5.92
   3   0  -2  139.32    5.92
  -3   0   2  133.46    5.59
   3   0  -1  617.92   15.39
  -3   0   1  626.58   17.26
  -3   0   1  629.44   16.99
   3   0  -1  612.41   16.81
  -3   0   0  711.99   18.21
  -3   0   0  709.30   17.91
  -3   0  -1  536.71   15.75
  -3   0  -1  577.82   15.69
   3   0   1  573.93   16.00
   3   0   1  557.62   14.81
   3   0   2   63.62    3.35
  -3   0  -2   67.19    3.76
  -3   0  -2   66.70    3.63
  -3   0  -2   69.70    3.75
   3   0   2   63.93    3.01
   3   0   2   62.30    3.76
   3   0   3  131.98    5.62
   3   0   3  129.13    6.02
  -3   0  -3  125.47    5.57
  -3   0  -3  132.31    6.04
  -3   0  -3  132.53    5.49
   3   0   3  132.09    4.75
  -3   0  -3  132.04    4.40
   3   0   4   94.47    5.04
  -3   0  -4   91.90    4.65
  -3   0  -4  108.52    5.81
  -3   0  -4  110.29    5.57
   3   0   4  104.03    5.70
  -3   0  -4  105.08    5.44
  -3   0  -4  115.47    4.88
  -3   0  -4  104.47    5.83
   3   0   4  105.02    5.59
  -3   0  -5   31.17    2.92
   3   0   5   31.69    3.28
  -3   0  -5   31.07    2.97
  -3   0  -5   29.16    3.16
  -3   0  -5   30.08    3.34
   3   0   5   27.83    3.01
   3   0   5   28.05    2.86
   3   0   6   10.39    1.93
   3   0   6   13.45    2.35
  -3   0  -6   11.26    2.13
  -3   0  -6   12.28    2.02
  -3   0  -6   10.82    1.91
   3   0   6   10.15    2.06
  -3   0  -6   10.82    2.21
   3   0   7   56.39    4.69
   3   0   7   56.04    4.68
  -3   0  -7   59.55    4.28
   3   0   7   71.27    5.53
  -3   0  -7   58.63    4.49
  -3   0  -7   70.05    5.66
  -3   0  -7   64.47    5.49
   3   0   7   59.94    5.02
   3   0   8  156.61    8.25
   3   0   8  168.52    8.35
   3   0   8  151.71    8.52
  -3   0  -8  149.09    7.48
  -3   0  -8  153.38    8.92
   3   0   8  157.94    8.31
  -3   0  -8  157.42    8.83
   3   0   8  146.43    8.40
   3   0   9  141.38    7.55
   3   0   9  136.31    7.13
  -3   0  -9  141.51    7.52
   3   0   9  131.38    7.58
  -3   0  -9  145.05    7.94
   3   0  10    0.78    0.67
   3   0  10    1.42    0.77
  -3   0 -10    0.42    0.90
   3   0  10    0.75    0.87
  -3   0 -10    2.16    1.04
  -3   0 -11   60.49    3.15
   3   0  11   56.81    3.30
  -3   0 -11   50.61    2.92
  -3  -1  10   12.88    1.51
  -3  -1  10   13.69    1.62
  -3  -1  10   13.98    1.76
  -3  -1   9    3.22    1.18
  -3  -1   9    2.04    1.04
  -3  -1   9    2.59    0.94
  -3  -1   9    3.04    1.24
  -3  -1   8   60.05    4.27
  -3  -1   8   60.39    4.21
  -3  -1   8   56.04    4.58
  -3  -1   8   60.38    4.78
  -3  -1   8   54.50    4.21
  -3  -1   8   58.75    4.84
   3   1  -7  158.04    8.58
  -3  -1   7  175.62    8.18
  -3  -1   7  193.86    8.29
  -3  -1   7  187.15    9.03
  -3  -1   7  176.57    8.96
  -3  -1   7  181.75    7.85
  -3  -1   7  186.76    7.92
  -3  -1   7  179.60    8.57
  -3  -1   7  169.16    8.93
   3   1  -6  722.65   22.30
  -3  -1   6  762.39   21.68
  -3  -1   6  725.63   21.52
  -3  -1   6  756.01   21.30
  -3  -1   6  773.26   21.86
  -3  -1   6  725.83   21.36
  -3  -1   6  736.79   22.76
  -3  -1   6  702.39   21.98
  -3  -1   6  700.23   22.58
   3   1  -5  358.74   12.69
  -3  -1   5  329.79   11.90
  -3  -1   5  350.73   11.77
  -3  -1   5  369.43   12.79
  -3  -1   5  370.07   12.66
  -3  -1   5  351.35   12.26
  -3  -1   5  365.86   13.23
  -3  -1   5  373.58   12.76
  -3  -1   5  354.20   12.77
   3   1  -5  358.27   11.74
  -3  -1   5  368.50   13.35
  -3  -1   4   17.05    2.25
  -3  -1   4   19.37    1.69
  -3  -1   4   18.91    2.39
  -3  -1   4   12.25    1.77
  -3  -1   4   15.01    2.08
  -3  -1   4   17.83    2.22
  -3  -1   4   20.03    2.25
  -3  -1   4   13.14    1.85
   3   1  -4   13.61    1.68
   3   1  -4   17.31    2.10
  -3  -1   4   15.43    2.04
  -3  -1   3   13.13    1.52
  -3  -1   3    9.94    1.25
  -3  -1   3    9.54    1.33
   3   1  -3   11.33    1.38
  -3  -1   2   33.52    2.49
  -3  -1   2   31.47    2.31
  -3  -1   2   30.47    2.41
  -3  -1   1   68.52    3.69
  -3  -1   1   69.24    3.57
  -3  -1   1   70.45    3.76
  -3  -1   0  235.79    7.98
  -3  -1   0  222.78    7.60
  -3  -1   0  229.66    7.88
  -3  -1  -1  488.18   13.68
  -3  -1  -1  482.17   13.58
   3   1   1  459.66   13.19
  -3  -1  -1  454.64   13.18
   3   1   1  471.80   12.01
  -3  -1  -2  765.48   20.32
  -3  -1  -2  776.24   20.02
   3   1   2  754.72   19.98
  -3  -1  -2  812.71   20.41
   3   1   2  756.80   17.94
   3   1   3   85.12    4.28
  -3  -1  -3   86.84    4.28
  -3  -1  -3   85.53    4.04
  -3  -1  -3   93.21    4.35
   3   1   3   83.74    4.26
   3   1   4  303.70   10.25
  -3  -1  -4  283.44    9.62
  -3  -1  -4  310.97    9.49
  -3  -1  -4  308.04   10.88
   3   1   4  299.06   10.29
  -3  -1  -4  322.49    9.86
   3   1   5  346.15   12.16
  -3  -1  -5  371.36   10.77
  -3  -1  -5  394.89   13.46
  -3  -1  -5  388.99   12.56
   3   1   5  364.21   12.81
   3   1   5  350.83   11.38
  -3  -1  -5  362.95   12.36
  -3  -1  -5  378.30   13.21
   3   1   5  370.04   12.52
   3   1   6   46.44    3.87
   3   1   6   44.02    3.72
   3   1   6   47.91    3.15
  -3  -1  -6   48.85    3.71
   3   1   6   51.47    4.24
   3   1   6   37.80    3.17
  -3  -1  -6   42.72    3.60
  -3  -1  -6   49.85    4.29
  -3  -1  -6   47.09    4.20
   3   1   7   58.86    4.67
   3   1   7   64.03    4.69
  -3  -1  -7   65.23    4.98
   3   1   7   63.03    5.09
   3   1   7   63.67    4.38
  -3  -1  -7   64.96    4.68
   3   1   7   56.45    3.88
  -3  -1  -7   57.22    5.02
  -3  -1  -7   62.44    5.20
   3   1   7   64.95    4.98
   3   1   8   87.81    5.98
   3   1   8   93.85    5.99
  -3  -1  -8   89.23    6.17
   3   1   8   88.43    6.31
   3   1   8   84.77    5.48
   3   1   8   85.95    5.93
  -3  -1  -8   86.63    6.53
  -3  -1  -8   90.97    6.50
   3   1   8   85.54    6.05
   3   1   9   58.24    4.80
   3   1   9   60.17    4.65
  -3  -1  -9   61.31    4.97
   3   1   9   54.10    4.90
   3   1   9   51.62    4.56
  -3  -1  -9   57.91    5.02
   3   1   9   48.85    4.62
   3   1  10   22.67    2.73
   3   1  10   18.70    2.34
  -3  -1 -10   22.60    2.77
   3   1  10   21.47    2.81
  -3  -1 -10   22.31    2.86
   3   1  11   -0.33    0.70
  -3  -1 -11    0.33    0.68
   3   1  11    2.16    0.99
  -3  -1 -11    0.86    0.70
  -3  -2  10  178.58    6.13
  -3  -2  10  175.57    6.09
  -3  -2   9   18.76    2.03
  -3  -2   9   22.28    2.11
  -3  -2   9   18.21    2.26
  -3  -2   9   20.04    2.24
  -3  -2   8    9.46    1.55
  -3  -2   8    9.73    2.11
  -3  -2   8    7.18    1.72
  -3  -2   8    7.96    1.38
  -3  -2   8    8.72    1.78
  -3  -2   8    9.36    2.13
   3   2  -7   13.06    2.26
  -3  -2   7   13.75    2.06
  -3  -2   7   16.19    2.33
  -3  -2   7   11.01    1.66
  -3  -2   7   13.22    1.99
  -3  -2   7   13.04    2.25
  -3  -2   7   13.50    2.16
  -3  -2   7   10.67    2.21
   3   2  -6    1.45    0.99
  -3  -2   6    1.50    1.06
  -3  -2   6    2.82    1.19
  -3  -2   6    2.66    1.07
   3   2  -6    1.29    0.96
  -3  -2   6    0.13    0.86
  -3  -2   6    1.79    1.51
  -3  -2   6    2.15    1.13
  -3  -2   6    2.38    1.49
  -3  -2   5   61.29    4.17
   3   2  -5   63.24    4.68
  -3  -2   5   62.73    4.47
  -3  -2   5   62.95    4.43
  -3  -2   5   63.73    4.15
  -3  -2   5   63.64    4.69
   3   2  -5   68.28    4.68
  -3  -2   5   69.20    5.08
  -3  -2   5   62.50    4.12
  -3  -2   5   54.52    4.38
  -3  -2   5   67.15    4.88
  -3  -2   4  895.36   24.26
  -3  -2   4  893.39   24.92
  -3  -2   4  891.48   24.01
  -3  -2   4  913.78   25.38
   3   2  -4  854.70   24.65
  -3  -2   4  906.05   24.64
  -3  -2   4  896.52   24.90
  -3  -2   4  902.99   25.51
  -3  -2   4  895.69   25.12
  -3  -2   4  910.81   25.54
  -3  -2   3  348.21   10.91
  -3  -2   3  347.41   11.98
  -3  -2   3  340.63   11.70
  -3  -2   3  380.65   12.37
   3   2  -3  329.10   11.49
  -3  -2   3  345.63   11.81
  -3  -2   3  356.12   10.84
  -3  -2   2 1612.77   40.11
  -3  -2   2 1669.22   39.68
  -3  -2   2 1661.69   39.99
  -3  -2   1  150.21    6.05
  -3  -2   1  139.11    5.59
  -3  -2   1  143.28    5.87
   3   2  -1  149.50    4.89
  -3  -2   0  253.82    8.57
  -3  -2   0  266.13    8.46
  -3  -2   0  273.97    8.87
   3   2   0  249.20    6.66
  -3  -2  -1 1040.17   26.07
  -3  -2  -1  994.50   25.45
   3   2   1 1001.63   24.70
  -3  -2  -1 1023.71   25.85
  -3  -2  -2  126.22    5.47
  -3  -2  -2  129.20    5.24
   3   2   2  125.29    4.70
  -3  -2  -2  128.68    5.38
  -3  -2  -3   44.94    3.09
  -3  -2  -3   48.77    2.96
   3   2   3   46.98    2.80
  -3  -2  -3   45.43    2.98
  -3  -2  -4  626.43   16.34
  -3  -2  -4  596.39   16.96
  -3  -2  -4  588.49   16.40
   3   2   4  606.65   16.77
  -3  -2  -4  623.78   16.91
  -3  -2  -5   94.24    4.48
  -3  -2  -5   87.78    4.41
   3   2   5   96.62    5.29
   3   2   5  100.12    4.95
  -3  -2  -5   97.95    5.23
  -3  -2  -5   97.40    5.68
  -3  -2  -5   92.03    5.07
   3   2   5   88.86    4.84
  -3  -2  -5   95.00    4.48
  -3  -2  -6  140.82    6.13
   3   2   6  143.66    7.04
  -3  -2  -6  138.06    7.51
   3   2   6  142.30    6.21
  -3  -2  -6  140.55    7.18
   3   2   6  137.64    7.38
   3   2   6  140.62    6.31
  -3  -2  -6  134.45    6.76
   3   2   6  128.30    6.71
   3   2   7  222.23    9.72
   3   2   7  223.01    9.51
  -3  -2  -7  250.08   10.49
   3   2   7  228.98   10.45
   3   2   7  232.08    9.18
  -3  -2  -7  246.94   10.83
   3   2   7  225.98    9.73
   3   2   8   94.01    6.07
   3   2   8   87.13    5.75
  -3  -2  -8  106.70    6.70
   3   2   8  102.55    6.78
   3   2   8  105.09    5.89
   3   2   8   91.13    5.57
   3   2   8   96.60    6.22
  -3  -2  -8  102.66    6.78
   3   2   8   85.92    5.91
   3   2   9   12.94    2.35
   3   2   9   18.77    2.68
   3   2   9   14.52    2.27
   3   2   9   17.15    2.85
  -3  -2  -9   12.95    2.46
   3   2   9   17.25    2.54
   3   2   9   17.12    2.62
  -3  -2  -9   14.12    2.61
   3   2  10  390.65   13.99
   3   2  10  386.94   13.56
  -3  -2 -10  407.87   14.74
   3   2  10  392.51   14.72
   3   2  10  355.49   13.01
  -3  -2 -10  398.69   14.41
   3   2  11    2.83    0.95
  -3  -2 -11    4.60    1.03
  -3  -2 -11    5.42    1.47
   3   2  11    3.97    1.37
  -3  -2 -11    2.06    0.81
  -3  -2 -12    1.69    0.76
   3   2  12    3.72    0.91
  -3  -3   9   38.35    2.27
  -3  -3   9   40.39    2.81
  -3  -3   8    2.75    0.66
  -3  -3   8    2.77    0.90
  -3  -3   8    3.17    1.15
  -3  -3   7    2.88    1.14
  -3  -3   7    2.53    1.20
  -3  -3   7    1.91    1.06
  -3  -3   7    2.05    0.97
  -3  -3   7    2.68    1.41
  -3  -3   7    3.35    1.28
  -3  -3   7    3.62    1.28
   3   3  -6   11.02    2.40
   3   3  -6    7.49    1.86
  -3  -3   6    6.84    1.63
  -3  -3   6    4.87    1.27
   3   3  -6    7.84    1.91
  -3  -3   6    7.19    1.67
  -3  -3   6    7.88    1.93
  -3  -3   6    4.98    1.63
  -3  -3   6    6.92    1.66
  -3  -3   5   84.08    4.91
  -3  -3   5   88.70    5.41
  -3  -3   5   79.71    5.13
   3   3  -5   80.27    5.73
  -3  -3   5   83.02    5.41
  -3  -3   5   87.39    5.91
  -3  -3   5   83.80    5.65
  -3  -3   5   83.22    5.48
   3   3  -5   81.63    5.63
   3   3  -4    3.96    1.30
   3   3  -4    3.44    1.33
  -3  -3   4    3.90    1.27
  -3  -3   4    5.97    1.34
  -3  -3   4    2.72    1.41
  -3  -3   4    3.40    1.03
  -3  -3   4    3.62    1.08
  -3  -3   4    1.67    1.15
  -3  -3   4    4.37    1.41
  -3  -3   4    4.50    1.38
  -3  -3   3  143.03    6.05
  -3  -3   3  129.10    6.02
  -3  -3   3  141.90    6.38
  -3  -3   3  131.23    6.16
  -3  -3   3  142.16    6.98
  -3  -3   3  135.65    6.32
   3   3  -3  119.33    6.60
  -3  -3   3  133.87    6.26
  -3  -3   3  130.07    6.61
  -3  -3   3  132.07    6.79
  -3  -3   3  133.61    5.78
  -3  -3   3  134.60    6.68
  -3  -3   3  123.93    6.26
   3   3  -3  141.93    6.59
  -3  -3   2   19.53    2.11
   3   3  -2   23.67    1.87
  -3  -3   2   16.57    2.03
  -3  -3   2   16.74    2.20
  -3  -3   2   19.68    2.25
  -3  -3   2   18.60    2.19
  -3  -3   2   18.76    2.01
  -3  -3   2   17.27    2.01
  -3  -3   2   18.93    2.24
   3   3  -2   18.90    2.00
  -3  -3   1  235.87    8.66
  -3  -3   1  233.35    8.22
   3   3  -1  237.96    8.01
  -3  -3   1  227.89    8.44
   3   3  -1  230.33    7.92
  -3  -3   0  420.69   12.90
   3   3   0  407.03   12.22
  -3  -3   0  406.87   12.34
   3   3   0  397.45   10.43
  -3  -3   0  419.20   12.76
   3   3   0  407.50   11.49
   3   3   1  604.85   15.47
  -3  -3  -1  613.05   17.35
   3   3   1  595.74   16.81
  -3  -3  -1  590.60   16.76
  -3  -3  -1  597.53   17.15
   3   3   2  286.32    8.30
  -3  -3  -2  292.83   10.01
   3   3   2  287.99    9.74
  -3  -3  -2  286.14    9.58
   3   3   2  292.18    7.70
  -3  -3  -2  285.42    9.85
   3   3   3   54.95    3.24
  -3  -3  -3   56.88    3.69
   3   3   3   59.75    3.70
  -3  -3  -3   54.01    3.40
   3   3   3   56.88    2.60
  -3  -3  -3   58.09    3.64
  -3  -3  -4  303.56   10.05
   3   3   4  287.63    9.48
  -3  -3  -4  297.43   10.24
   3   3   4  302.62   10.31
  -3  -3  -4  285.28    9.72
   3   3   4  301.71    8.95
  -3  -3  -4  297.42   10.07
  -3  -3  -5    5.60    1.21
   3   3   5    6.76    1.20
  -3  -3  -5    7.26    1.32
   3   3   5    7.97    1.42
  -3  -3  -5    9.37    1.58
   3   3   5    7.65    1.58
   3   3   5    7.86    1.25
  -3  -3  -5    7.83    1.68
  -3  -3  -5    7.21    1.27
  -3  -3  -6   16.52    2.11
   3   3   6   15.76    1.84
   3   3   6   17.64    2.29
   3   3   6   16.27    2.11
   3   3   6   19.98    2.13
  -3  -3  -6   18.60    2.46
   3   3   6   20.33    2.63
   3   3   6   13.97    1.82
  -3  -3  -6   18.92    1.97
  -3  -3  -6   13.66    2.24
  -3  -3  -7   23.74    2.68
   3   3   7   20.34    2.19
   3   3   7   23.07    2.70
   3   3   7   23.39    2.44
   3   3   7   22.76    2.46
  -3  -3  -7   23.52    2.96
   3   3   7   27.00    3.22
   3   3   7   22.70    2.55
  -3  -3  -7   23.98    2.99
  -3  -3  -8   77.82    5.21
   3   3   8   70.96    5.08
   3   3   8   68.17    4.89
  -3  -3  -8   71.92    5.61
   3   3   8   68.60    5.48
   3   3   8   74.92    4.88
   3   3   8   62.60    4.79
  -3  -3  -8   81.92    5.84
   3   3   9  193.41    8.96
  -3  -3  -9  196.74    9.77
   3   3   9  176.74    9.45
   3   3   9  179.53    8.35
   3   3   9  173.51    8.59
   3   3   9  177.01    8.89
  -3  -3  -9  181.89    9.32
   3   3  10   21.27    2.67
  -3  -3 -10   21.89    2.69
   3   3  10   19.64    2.44
  -3  -3 -10   25.29    3.15
   3   3  10   23.79    3.13
  -3  -3 -10   21.49    2.80
   3   3  11   73.69    4.53
  -3  -3 -11   77.22    5.05
  -3  -3 -11   67.05    3.96
   3   3  11   71.65    4.94
  -3  -3 -12   51.87    3.32
   3   3  12   44.98    3.14
  -3  -4   8  152.75    6.06
  -3  -4   8  144.65    5.49
  -3  -4   7   67.93    4.04
  -3  -4   7   63.44    4.12
  -3  -4   7   55.39    3.83
  -3  -4   7   56.08    3.92
  -3  -4   7   61.06    4.34
  -3  -4   6   57.94    4.34
  -3  -4   6   55.47    4.22
  -3  -4   6   54.69    4.18
  -3  -4   6   63.22    4.78
  -3  -4   6   62.39    4.63
  -3  -4   5  112.17    6.04
  -3  -4   5  107.49    6.25
  -3  -4   5  108.56    6.26
  -3  -4   5  109.46    6.51
   3   4  -5   91.67    6.47
  -3  -4   5  109.60    6.71
  -3  -4   5  114.43    6.70
   3   4  -5  101.65    6.56
  -3  -4   4   63.10    4.53
  -3  -4   4   65.10    4.65
  -3  -4   4   63.20    4.64
   3   4  -4   57.32    4.96
  -3  -4   4   68.35    5.18
  -3  -4   4   58.89    4.74
  -3  -4   4   64.35    4.89
   3   4  -4   55.03    4.65
  -3  -4   3  192.94    8.45
  -3  -4   3  190.76    8.51
  -3  -4   3  194.65    8.41
   3   4  -3  170.83    8.91
  -3  -4   3  200.44    8.89
  -3  -4   3  180.89    8.61
  -3  -4   3  196.86    8.91
   3   4  -3  191.11    8.89
   3   4  -2   -0.15    0.67
  -3  -4   2    1.27    0.81
  -3  -4   2    0.93    0.90
  -3  -4   2    2.74    1.28
  -3  -4   2    2.98    0.99
  -3  -4   2    1.26    0.82
  -3  -4   2    3.02    1.27
  -3  -4   2    2.31    1.10
  -3  -4   2    1.79    0.70
   3   4  -2    2.04    1.05
  -3  -4   2    2.86    1.24
  -3  -4   2    2.25    1.03
  -3  -4   2   -0.17    0.81
  -3  -4   2    0.46    0.67
  -3  -4   2    0.45    0.76
  -3  -4   1  252.68    9.76
  -3  -4   1  245.40    9.24
   3   4  -1  246.49    8.66
  -3  -4   1  241.89    9.53
  -3  -4   1  240.10    9.46
  -3  -4   1  243.90    9.17
  -3  -4   1  254.27    9.65
  -3  -4   1  246.22    9.56
  -3  -4   1  245.65    9.26
  -3  -4   1  253.16    9.44
  -3  -4   1  238.28    9.54
  -3  -4   1  241.02    9.48
   3   4  -1  256.03    9.51
  -3  -4   0  532.20   16.46
  -3  -4   0  524.25   15.80
   3   4   0  532.78   15.54
  -3  -4   0  530.04   16.04
  -3  -4   0  502.57   15.64
  -3  -4   0  508.50   15.70
  -3  -4   0  511.51   15.74
  -3  -4   0  514.40   16.00
  -3  -4   0  538.81   15.93
  -3  -4   0  523.30   15.83
  -3  -4   0  546.32   15.99
  -3  -4   0  518.66   16.20
   3   4   0  518.35   15.46
   3   4   1    4.45    1.11
  -3  -4  -1    4.92    1.42
  -3  -4  -1    3.47    1.19
   3   4   1    4.69    1.26
  -3  -4  -1    2.39    0.84
  -3  -4  -1    4.77    1.13
  -3  -4  -1    4.57    1.27
  -3  -4  -1    3.67    1.18
  -3  -4  -1    6.00    1.50
   3   4   2  234.03    8.12
  -3  -4  -2  229.61    9.30
  -3  -4  -2  224.54    8.75
   3   4   2  237.66    9.01
  -3  -4  -2  228.78    8.82
  -3  -4  -2  240.34    9.00
  -3  -4  -2  232.18    9.24
   3   4   3   62.49    3.59
  -3  -4  -3   68.80    4.52
   3   4   3   66.20    4.05
  -3  -4  -3   61.77    4.01
   3   4   3   73.01    4.43
  -3  -4  -3   64.05    4.03
  -3  -4  -3   63.05    4.01
  -3  -4  -3   65.34    4.11
  -3  -4  -3   67.88    4.40
  -3  -4  -4   19.11    2.59
   3   4   4   18.96    2.48
  -3  -4  -4   24.88    3.03
  -3  -4  -4   17.47    2.24
   3   4   4   24.70    2.77
  -3  -4  -4   24.99    2.57
  -3  -4  -4   21.90    2.56
  -3  -4  -4   20.45    2.44
  -3  -4  -4   25.40    2.89
  -3  -4  -5  332.95   11.93
  -3  -4  -5  317.47   11.44
   3   4   5  295.82   10.76
  -3  -4  -5  299.83   10.79
  -3  -4  -5  334.54   12.05
   3   4   5  333.93   11.75
  -3  -4  -5  324.50   11.14
  -3  -4  -5  313.15   11.57
   3   4   5  313.18   11.73
  -3  -4  -5  346.89   11.64
  -3  -4  -5  311.18   10.99
  -3  -4  -6   72.13    5.00
   3   4   6   70.02    4.43
  -3  -4  -6   75.39    4.61
   3   4   6   80.27    5.01
  -3  -4  -6   65.47    4.10
  -3  -4  -6   73.54    4.31
  -3  -4  -6   74.20    5.20
   3   4   6   81.95    5.06
  -3  -4  -6   71.75    4.46
  -3  -4  -6   69.94    4.86
   3   4   6   72.44    5.07
  -3  -4  -6   68.98    5.09
  -3  -4  -6   77.63    4.61
  -3  -4  -7    1.73    1.29
   3   4   7    0.43    0.66
   3   4   7    3.44    1.58
   3   4   7    2.60    1.15
  -3  -4  -7    2.01    1.24
   3   4   7    0.82    1.06
  -3  -4  -7    2.15    1.48
   3   4   7    2.25    1.38
  -3  -4  -7    2.02    1.63
  -3  -4  -8   40.97    3.99
   3   4   8   40.59    3.40
   3   4   8   43.11    3.75
  -3  -4  -8   37.22    4.00
  -3  -4  -8   22.38    3.03
   3   4   8   42.55    3.58
   3   4   8   25.23    3.37
   3   4   8   36.93    3.50
  -3  -4  -8   17.63    2.92
  -3  -4  -9    5.38    1.65
   3   4   9    4.40    1.16
   3   4   9    4.17    1.38
  -3  -4  -9    3.94    1.42
   3   4   9    4.32    1.30
  -3  -4  -9    3.31    1.50
   3   4   9    4.74    1.67
   3   4   9    2.47    1.22
   3   4   9    6.08    1.55
   3   4  10    4.66    1.32
  -3  -4 -10    2.87    1.00
  -3  -4 -10    4.23    1.46
   3   4  10    2.04    1.01
   3   4  10    2.27    1.50
   3   4  11  174.34    7.09
  -3  -4 -11  177.33    8.16
  -3  -4 -11  165.90    6.74
   3   4  11  180.83    8.23
  -3  -4 -12    2.76    0.81
   3   4  12    3.51    0.98
  -3  -5   7   63.51    3.29
  -3  -5   7   56.77    2.96
  -3  -5   7   59.09    3.28
  -3  -5   7   57.18    3.18
  -3  -5   6    0.51    0.72
  -3  -5   6    0.73    0.67
  -3  -5   6    2.16    0.83
  -3  -5   6   -0.09    0.65
  -3  -5   6    0.90    0.78
  -3  -5   5   47.52    3.90
  -3  -5   5   49.58    3.87
  -3  -5   5   52.84    4.11
   3   5  -5   50.28    3.69
  -3  -5   5   48.41    3.97
  -3  -5   5   49.76    4.07
   3   5  -4   27.12    3.43
  -3  -5   4   26.07    2.99
  -3  -5   4   29.50    3.10
  -3  -5   4   29.98    3.22
   3   5  -4   29.43    3.64
  -3  -5   4   27.63    3.19
  -3  -5   4   31.37    3.25
  -3  -5   4   28.60    3.32
  -3  -5   3  249.55   10.39
  -3  -5   3  237.90   10.04
  -3  -5   3  237.85   10.23
   3   5  -3  218.66   10.78
  -3  -5   3  238.65   10.52
  -3  -5   3  232.67    9.99
  -3  -5   3  252.24   10.78
   3   5  -3  244.96   10.93
  -3  -5   2  453.29   14.90
  -3  -5   2  425.76   13.90
   3   5  -2  425.81   16.07
  -3  -5   2  455.66   15.38
  -3  -5   2  438.91   15.46
  -3  -5   2  420.07   13.97
  -3  -5   2  449.99   15.27
  -3  -5   2  437.38   15.09
  -3  -5   2  434.72   15.41
  -3  -5   2  436.17   14.66
  -3  -5   2  430.54   14.68
  -3  -5   2  445.07   15.45
   3   5  -2  441.72   15.74
  -3  -5   1  160.66    7.95
  -3  -5   1  162.29    7.36
  -3  -5   1  162.26    7.47
  -3  -5   1  164.19    7.80
  -3  -5   1  158.92    7.80
  -3  -5   1  162.18    7.92
  -3  -5   1  161.47    7.86
   3   5  -1  153.26    8.32
  -3  -5   1  159.62    7.79
  -3  -5   1  153.43    7.74
   3   5  -1  156.45    7.93
  -3  -5   0   24.23    2.96
  -3  -5   0   21.73    2.58
  -3  -5   0   21.86    2.65
   3   5   0   26.51    2.67
  -3  -5   0   23.30    2.76
  -3  -5   0   25.34    2.79
  -3  -5   0   22.69    2.70
  -3  -5   0   20.14    2.48
  -3  -5   0   24.01    2.91
  -3  -5   0   20.09    2.56
   3   5   0   25.00    2.81
  -3  -5  -1   83.09    5.64
  -3  -5  -1   86.41    5.21
   3   5   1   94.61    5.43
  -3  -5  -1   88.36    5.34
  -3  -5  -1   89.09    5.47
  -3  -5  -1   90.61    5.47
  -3  -5  -1   87.24    5.28
  -3  -5  -1   89.44    5.47
  -3  -5  -1   89.78    5.12
  -3  -5  -1   89.65    5.73
   3   5   1   86.29    5.21
   3   5   2   19.73    2.34
  -3  -5  -2   16.03    2.48
  -3  -5  -2   18.12    2.39
   3   5   2   17.45    2.34
  -3  -5  -2   20.11    2.64
  -3  -5  -2   16.58    2.21
  -3  -5  -2   16.94    2.22
  -3  -5  -2   20.45    2.54
  -3  -5  -2   16.13    2.29
  -3  -5  -2   19.53    2.58
   3   5   3    0.05    0.56
   3   5   3   -0.14    0.70
  -3  -5  -3    0.86    1.18
  -3  -5  -3    0.10    0.80
  -3  -5  -3   -0.25    0.85
   3   5   3    0.55    0.79
  -3  -5  -3    1.76    1.07
  -3  -5  -3    0.05    0.74
  -3  -5  -3   -0.25    0.94
   3   5   3   -0.32    1.08
  -3  -5  -3    0.08    0.81
   3   5   4   19.38    2.30
   3   5   4   17.90    2.37
  -3  -5  -4   15.67    2.50
  -3  -5  -4   20.06    2.43
   3   5   4   15.80    2.46
  -3  -5  -4   18.89    2.24
  -3  -5  -4   16.27    2.26
  -3  -5  -4   20.40    2.66
   3   5   4   18.17    2.37
  -3  -5  -4   22.23    2.64
  -3  -5  -4   17.65    2.28
  -3  -5  -4   18.90    2.64
  -3  -5  -5  194.24    9.05
   3   5   5  187.82    8.46
  -3  -5  -5  196.43    8.44
  -3  -5  -5  185.11    8.92
  -3  -5  -5  189.77    8.21
   3   5   5  195.89    9.03
  -3  -5  -5  199.92    8.13
  -3  -5  -5  198.69    8.65
  -3  -5  -5  194.63    8.66
   3   5   5  186.17    8.71
  -3  -5  -5  181.77    8.77
   3   5   6   19.92    2.56
   3   5   6   23.06    2.67
  -3  -5  -6   20.15    2.57
  -3  -5  -6   16.71    2.23
  -3  -5  -6   15.49    2.13
   3   5   6   20.14    2.73
  -3  -5  -6   18.67    2.34
  -3  -5  -6   18.19    2.51
  -3  -5  -6   25.05    3.19
   3   5   6   18.49    2.74
  -3  -5  -6   24.32    2.83
  -3  -5  -7    3.24    1.30
   3   5   7    4.26    1.35
   3   5   7    1.93    1.07
  -3  -5  -7    3.76    1.27
   3   5   7    6.47    1.78
  -3  -5  -7    3.44    1.19
  -3  -5  -7    3.65    1.41
  -3  -5  -7    2.20    1.47
   3   5   7    4.79    1.50
  -3  -5  -7    2.38    1.07
  -3  -5  -8    0.16    1.06
   3   5   8    1.07    0.94
   3   5   8   -0.06    0.77
   3   5   8    0.45    0.90
  -3  -5  -8   -0.28    0.87
  -3  -5  -8   -0.12    1.18
   3   5   8    1.07    0.90
   3   5   8    0.48    1.07
   3   5   8   -0.99    1.24
   3   5   9   11.28    1.86
   3   5   9    9.35    1.60
  -3  -5  -9   12.32    2.07
  -3  -5  -9   10.67    2.32
   3   5   9   15.74    2.20
   3   5   9   11.78    2.35
   3   5   9    9.17    2.02
   3   5  10    2.40    0.90
  -3  -5 -10    2.72    1.06
  -3  -5 -10    4.34    1.62
   3   5  10    2.01    0.91
  -3  -5 -11   17.96    1.81
   3   5  11   21.08    2.45
  -3  -5 -12    0.78    0.56
   3   5  12    0.67    0.54
  -3  -6   6    2.22    0.56
  -3  -6   6    1.76    0.55
  -3  -6   6    2.07    0.61
  -3  -6   5   25.40    2.28
  -3  -6   5   26.68    2.38
  -3  -6   5   24.13    2.27
   3   6  -5   20.31    1.84
  -3  -6   5   22.61    2.26
   3   6  -4    1.75    0.79
  -3  -6   4    3.09    1.20
  -3  -6   4    3.66    1.15
  -3  -6   4    3.75    1.09
  -3  -6   4    4.07    1.35
  -3  -6   4    1.45    0.65
  -3  -6   3   20.58    2.64
  -3  -6   3   14.59    2.14
  -3  -6   3   20.20    2.63
  -3  -6   3   22.89    2.83
  -3  -6   3   19.33    2.17
  -3  -6   3   20.56    2.66
   3   6  -2   -1.97    1.26
  -3  -6   2    1.02    1.22
  -3  -6   2    1.15    0.97
   3   6  -2    0.25    1.06
  -3  -6   2    1.02    0.93
  -3  -6   2    0.60    0.82
  -3  -6   2    0.59    0.78
  -3  -6   1   87.38    5.78
   3   6  -1   96.40    6.55
  -3  -6   1   91.17    5.82
  -3  -6   1   96.44    6.13
  -3  -6   1   87.40    5.71
  -3  -6   1   94.57    6.00
  -3  -6   1   88.76    5.81
  -3  -6   1   86.57    5.34
  -3  -6   1   85.29    5.80
   3   6  -1   91.77    6.26
  -3  -6   0   43.06    4.20
  -3  -6   0   46.17    3.86
  -3  -6   0   44.68    4.02
  -3  -6   0   37.05    3.65
  -3  -6   0   44.34    4.03
  -3  -6   0   46.90    4.03
  -3  -6   0   47.55    4.23
   3   6   0   39.81    4.13
  -3  -6   0   39.22    3.70
  -3  -6   0   52.25    4.52
   3   6   0   42.68    4.05
   3   6   1 1328.91   35.99
  -3  -6  -1 1287.37   36.60
   3   6   1 1321.63   36.28
  -3  -6  -1 1360.27   35.87
  -3  -6  -1 1286.60   34.99
   3   6   1 1201.52   34.62
  -3  -6  -1 1259.00   34.97
  -3  -6  -1 1311.10   35.72
  -3  -6  -1 1298.21   35.49
  -3  -6  -1 1328.98   35.79
  -3  -6  -1 1406.53   35.01
  -3  -6  -1 1352.30   36.93
   3   6   2   10.43    2.06
   3   6   2    6.49    1.89
  -3  -6  -2    8.03    2.17
  -3  -6  -2    5.39    1.35
  -3  -6  -2    5.83    1.63
   3   6   2    6.70    1.78
  -3  -6  -2    6.31    1.67
  -3  -6  -2    6.70    1.75
  -3  -6  -2    7.17    1.74
  -3  -6  -2    6.34    1.63
  -3  -6  -2    6.91    1.71
   3   6   3   35.19    3.51
  -3  -6  -3   36.15    4.01
   3   6   3   36.13    3.64
  -3  -6  -3   32.99    3.54
  -3  -6  -3   34.68    3.51
   3   6   3   36.96    3.69
  -3  -6  -3   37.10    3.38
   3   6   3   35.43    3.33
  -3  -6  -3   31.70    3.40
  -3  -6  -3   34.00    3.58
  -3  -6  -3   37.82    4.05
  -3  -6  -3   35.22    3.47
   3   6   4   38.82    3.70
  -3  -6  -4   45.72    4.44
   3   6   4   40.96    3.89
  -3  -6  -4   42.82    4.23
  -3  -6  -4   38.22    3.63
   3   6   4   38.37    3.93
  -3  -6  -4   39.58    3.34
   3   6   4   40.82    3.74
  -3  -6  -4   42.81    3.91
  -3  -6  -4   40.16    3.85
  -3  -6  -4   45.46    4.37
  -3  -6  -4   44.77    3.95
   3   6   5    7.13    1.75
  -3  -6  -5   10.85    2.22
  -3  -6  -5    7.65    1.75
   3   6   5    8.45    1.79
  -3  -6  -5   14.20    1.92
  -3  -6  -5    9.38    2.22
   3   6   5    6.73    1.74
  -3  -6  -5    9.08    1.90
  -3  -6  -5    5.88    1.55
  -3  -6  -5    7.76    1.95
  -3  -6  -6   80.67    5.37
  -3  -6  -6   81.20    5.78
   3   6   6   80.96    5.60
   3   6   6   88.60    5.20
  -3  -6  -6   79.75    5.37
  -3  -6  -6   78.46    5.88
   3   6   6   91.67    6.15
  -3  -6  -6   80.47    5.58
   3   6   6   84.68    5.81
  -3  -6  -6   78.71    5.66
  -3  -6  -7   88.90    5.57
  -3  -6  -7   95.85    5.84
   3   6   7   82.09    5.55
   3   6   7   89.13    5.09
  -3  -6  -7   89.59    6.32
   3   6   7   92.61    6.15
  -3  -6  -7   83.10    5.61
   3   6   7   74.70    5.66
  -3  -6  -7   88.31    5.32
  -3  -6  -8    3.44    1.11
   3   6   8    5.92    1.47
  -3  -6  -8    5.55    1.54
  -3  -6  -8    5.41    1.68
   3   6   8    2.35    0.99
   3   6   8    3.96    1.33
   3   6   9  205.56    8.71
  -3  -6  -9  206.22    9.64
  -3  -6  -9  199.07    8.57
   3   6   9  199.59    9.34
   3   6  10    0.89    0.74
  -3  -6 -10    1.55    1.01
   3   6  10    0.94    0.95
  -3  -6 -11   79.16    4.37
   3   6  11   66.74    4.04
  -3  -6 -12    0.41    0.48
   3   6  12    0.92    0.46
  -3  -7   4   25.48    1.88
  -3  -7   4   21.79    1.83
  -3  -7   4   23.74    1.92
  -3  -7   4   23.94    1.89
   3   7  -3    1.64    0.88
  -3  -7   3    1.18    0.65
  -3  -7   3    0.61    0.51
  -3  -7   3    0.95    0.66
  -3  -7   3    1.18    0.72
   3   7  -2   -0.03    0.66
  -3  -7   2    0.70    0.63
  -3  -7   2    1.28    0.77
  -3  -7   2    0.01    0.85
  -3  -7   2    0.80    0.73
  -3  -7   2   -0.49    0.72
   3   7  -1    2.02    1.03
  -3  -7   1    0.69    0.72
  -3  -7   1   -0.14    0.84
  -3  -7   1    1.87    0.75
  -3  -7   1    1.30    0.83
  -3  -7   1    0.99    0.86
  -3  -7   1    0.48    0.72
   3   7   0   -0.23    0.87
  -3  -7   0    1.44    1.16
  -3  -7   0   -1.30    0.95
  -3  -7   0    1.34    0.80
  -3  -7   0   -0.49    0.79
  -3  -7   0    0.20    0.85
  -3  -7   0    0.64    0.88
  -3  -7   0   -0.74    0.77
  -3  -7   0    1.84    1.00
  -3  -7  -1   35.02    3.78
   3   7   1   33.36    3.52
  -3  -7  -1   29.97    3.11
  -3  -7  -1   33.92    3.55
  -3  -7  -1   30.71    3.35
  -3  -7  -1   30.79    3.32
  -3  -7  -1   30.57    2.97
  -3  -7  -1   34.60    3.35
   3   7   2   -1.45    1.79
  -3  -7  -2   -0.33    0.85
   3   7   2   -0.78    1.12
  -3  -7  -2   -0.64    1.07
   3   7   2    3.05    1.30
  -3  -7  -2    0.38    1.04
  -3  -7  -2   -0.57    0.81
  -3  -7  -2   -0.31    0.99
  -3  -7  -2    0.55    0.96
  -3  -7  -2    1.38    0.94
   3   7   3  140.30    7.87
  -3  -7  -3  152.15    8.58
   3   7   3  155.40    8.09
   3   7   3  146.28    7.98
  -3  -7  -3  150.13    7.09
   3   7   3  148.91    7.23
  -3  -7  -3  162.02    8.27
  -3  -7  -3  155.49    7.99
  -3  -7  -3  154.77    8.04
  -3  -7  -3  148.73    8.61
  -3  -7  -3  148.58    7.54
   3   7   4  169.15    8.60
  -3  -7  -4  168.09    9.12
   3   7   4  175.21    8.65
   3   7   4  170.25    8.82
  -3  -7  -4  180.41    7.44
  -3  -7  -4  171.40    8.14
   3   7   4  167.72    8.00
  -3  -7  -4  164.79    8.57
  -3  -7  -4  158.96    8.36
  -3  -7  -4  158.27    8.17
  -3  -7  -4  176.06    9.43
  -3  -7  -5   73.03    5.69
   3   7   5   74.13    5.29
  -3  -7  -5   66.31    5.18
   3   7   5   62.23    5.11
  -3  -7  -5   71.99    4.86
   3   7   5   74.56    5.12
  -3  -7  -5   75.84    5.42
  -3  -7  -5   71.02    5.22
  -3  -7  -5   65.90    5.43
  -3  -7  -5   66.71    4.95
  -3  -7  -6   34.51    3.81
   3   7   6   36.29    3.58
  -3  -7  -6   37.19    3.89
  -3  -7  -6   40.33    3.74
   3   7   6   35.18    3.54
  -3  -7  -6   37.39    3.39
  -3  -7  -6   31.87    3.29
   3   7   7    0.54    0.69
  -3  -7  -7    0.51    0.81
  -3  -7  -7    0.58    0.97
  -3  -7  -7   -0.21    0.72
   3   7   7    2.37    1.16
  -3  -7  -7    1.82    1.19
  -3  -7  -7    1.47    0.79
   3   7   8   14.51    2.14
  -3  -7  -8   22.96    2.83
   3   7   8   16.35    2.31
  -3  -7  -8   17.22    2.14
  -3  -7  -8   16.78    1.97
   3   7   9   26.28    2.55
  -3  -7  -9   31.99    3.07
   3   7   9   31.56    2.95
  -3  -7 -10    2.54    0.96
   3   7  10    1.91    0.84
  -3  -7 -11   19.10    1.60
   3   7  11   16.97    1.50
  -3  -8   2   63.92    2.81
   3   8  -2   61.16    2.96
  -3  -8   1   21.28    1.79
  -3  -8   1   22.03    1.90
  -3  -8   1   24.39    1.83
  -3  -8   1   24.35    1.89
   3   8   0   13.91    1.76
   3   8   0   12.95    1.55
  -3  -8   0   14.69    1.61
  -3  -8   0   19.33    1.81
   3   8   1    3.46    0.95
  -3  -8  -1    1.52    0.83
  -3  -8  -1    2.13    1.12
  -3  -8  -1   -0.03    0.56
  -3  -8  -1    3.49    1.06
  -3  -8  -1    1.06    0.75
  -3  -8  -1    3.04    0.94
   3   8   2  197.62    8.19
  -3  -8  -2  199.61    8.76
  -3  -8  -2  182.96    7.14
  -3  -8  -2  192.84    8.17
  -3  -8  -2  209.72    8.37
  -3  -8  -2  188.15    7.40
  -3  -8  -2  185.12    7.91
  -3  -8  -3  102.55    6.11
   3   8   3   96.21    5.44
  -3  -8  -3   94.30    4.39
  -3  -8  -3   88.69    5.37
  -3  -8  -3   97.77    5.45
  -3  -8  -3   90.25    4.72
  -3  -8  -3   92.11    5.23
  -3  -8  -4    1.94    0.93
   3   8   4    2.02    0.98
  -3  -8  -4    1.86    1.14
  -3  -8  -4    3.44    1.22
  -3  -8  -4    1.93    0.98
  -3  -8  -4    1.71    0.61
   3   8   5    1.88    0.93
  -3  -8  -5    3.03    1.06
  -3  -8  -5    0.12    0.84
  -3  -8  -5   -0.53    0.91
  -3  -8  -5    0.68    0.53
  -3  -8  -5    0.97    0.68
   3   8   6    5.16    1.30
  -3  -8  -6    6.25    1.33
  -3  -8  -6    4.16    1.31
  -3  -8  -6    4.84    1.23
   3   8   6    6.29    1.31
  -3  -8  -6    3.66    0.81
  -3  -8  -6    3.06    0.89
   3   8   7   27.96    2.59
   3   8   7   25.71    2.43
   3   8   7   29.85    2.44
  -3  -8  -7   28.15    2.50
  -3  -8  -7   26.65    2.42
  -3  -8  -7   28.26    2.43
   3   8   8   45.02    3.07
   3   8   8   37.75    2.69
   3   8   8   43.91    2.96
  -3  -8  -8   38.90    2.61
   3   8   9    1.40    0.63
   3   9   3   15.49    1.49
   3   9   4   33.42    2.08
   3   9   4   34.61    2.33
   3   9   5   14.28    1.36
  -3  -9  -5   12.65    1.21
   3   9   5   12.95    1.35
   3   9   6    0.15    0.42
  -4   5   6    6.34    0.98
  -4   5   6    9.31    1.09
  -4   5   5   20.09    1.87
  -4   5   5   16.01    1.51
  -4   5   5   18.03    1.65
  -4   5   5   16.65    1.66
  -4   5   5   16.31    1.68
  -4   5   4   -0.34    0.73
  -4   5   4   -0.48    0.65
  -4   5   4    0.45    0.57
  -4   5   4    0.34    0.74
  -4   5   3   -0.16    0.51
  -4   5   3    0.60    0.55
  -4   5   3   -0.16    0.67
   4  -5  -3    0.75    0.69
  -4   5   3    0.36    0.58
  -4   5   2    1.22    0.78
  -4   5   2    0.88    0.67
   4  -5  -2    0.95    0.63
  -4   5   1    2.64    0.88
  -4   5   1    1.84    0.85
   4  -5  -1    1.73    0.77
  -4   5   0  117.16    5.09
  -4   5   0  123.34    5.53
  -4   5   0  122.38    5.39
   4  -5   0  121.52    4.69
  -4   5  -1  156.70    5.46
  -4   5  -1  162.74    5.87
  -4   5  -1  168.25    6.03
   4  -5   1  155.30    5.48
  -4   5  -1  177.45    6.27
  -4   5  -2   88.37    3.74
  -4   4   8   23.09    1.89
  -4   4   8   25.17    1.91
  -4   4   8   23.64    1.87
  -4   4   7  356.12   10.70
  -4   4   7  361.56   11.46
  -4   4   7  340.89   11.15
  -4   4   6  288.78   10.19
  -4   4   6  298.26   10.20
  -4   4   6  305.48   10.72
  -4   4   6  291.76   10.69
  -4   4   5   64.06    4.07
  -4   4   5   58.08    4.08
  -4   4   5   65.30    4.02
  -4   4   5   59.18    4.02
   4  -4  -5   60.45    3.98
  -4   4   5   65.13    4.49
  -4   4   5   63.47    4.44
  -4   4   4   29.95    3.05
  -4   4   4   30.78    3.14
   4  -4  -4   30.65    2.98
  -4   4   4   31.57    3.23
  -4   4   4   25.52    2.51
  -4   4   4   25.86    2.83
  -4   4   3   35.74    3.42
  -4   4   3   32.03    3.49
   4  -4  -3   32.46    3.24
  -4   4   3   36.37    3.48
  -4   4   3   29.63    3.00
  -4   4   2   -0.01    0.80
  -4   4   2    0.46    0.63
  -4   4   2   -0.62    1.08
   4  -4  -2    1.37    1.15
  -4   4   2    1.00    1.03
   4  -4  -1   -0.17    0.83
  -4   4   1    2.17    1.19
   4  -4  -1    2.14    0.93
  -4   4   1    1.53    0.94
  -4   4   0   -0.20    0.93
   4  -4   0    2.37    1.08
   4  -4   0    0.25    0.75
  -4   4  -1  272.72   10.29
  -4   4  -1  269.23   10.89
   4  -4   1  285.38   10.48
   4  -4   1  290.48   10.60
  -4   4  -2  490.78   14.86
  -4   4  -2  510.53   15.62
  -4   4  -2  507.37   15.73
   4  -4   2  523.16   15.83
   4  -4   2  501.88   15.14
  -4   4  -3   17.46    1.92
  -4   4  -3   13.61    1.81
   4  -4   3   13.06    1.80
  -4   4  -4   21.76    1.69
   4  -4   4   24.33    2.16
  -4   4  -4   24.67    2.10
  -4   3   9    9.28    1.05
  -4   3   9    6.59    1.08
  -4   3   9    9.05    1.21
  -4   3   8    0.37    0.62
  -4   3   8    0.81    0.59
  -4   3   7   66.32    3.89
  -4   3   7   64.45    4.40
  -4   3   7   70.56    4.72
  -4   3   7   69.94    4.67
  -4   3   7   68.46    3.79
  -4   3   6   19.97    2.41
  -4   3   6   21.74    2.85
  -4   3   6   26.10    3.08
  -4   3   6   21.15    2.66
  -4   3   6   24.58    2.42
  -4   3   5   75.83    5.03
  -4   3   5   80.28    4.92
  -4   3   5   76.38    5.06
   4  -3  -5   75.84    4.84
  -4   3   5   81.56    5.67
  -4   3   5   73.66    5.12
  -4   3   5   86.09    5.78
  -4   3   5   79.42    4.78
  -4   3   4   56.58    4.44
  -4   3   4   57.41    4.63
   4  -3  -4   46.75    4.52
  -4   3   4   52.83    4.61
  -4   3   4   47.05    4.10
  -4   3   4   55.50    4.35
  -4   3   4   52.82    4.58
   4  -3  -4   50.29    4.55
  -4   3   4   59.20    4.11
  -4   3   3   80.50    5.51
  -4   3   3   72.68    5.34
  -4   3   3   68.62    5.36
  -4   3   3   68.03    5.33
  -4   3   3   69.13    5.14
  -4   3   3   73.52    4.90
   4  -3  -3   73.02    5.52
  -4   3   3   85.38    5.04
   4  -3  -3   60.42    5.15
  -4   3   2  198.22    9.48
  -4   3   2  200.41    9.90
  -4   3   2  195.24    9.55
  -4   3   2  197.90    9.44
  -4   3   2  216.57    8.66
   4  -3  -2  203.24    9.72
  -4   3   2  200.15    9.19
   4  -3  -2  187.04    9.59
  -4   3   1   62.43    4.98
  -4   3   1   63.95    5.27
  -4   3   1   56.65    4.81
  -4   3   1   62.86    5.01
  -4   3   1   71.27    4.83
   4  -3  -1   73.45    5.38
   4  -3  -1   58.33    4.91
  -4   3   0   99.18    6.60
   4  -3   0  104.30    5.91
  -4   3   0   89.14    6.10
  -4   3   0   90.88    6.04
   4  -3   0  101.34    6.40
   4  -3   0   88.99    5.98
  -4   3  -1  414.68   15.18
   4  -3   1  401.51   14.09
  -4   3  -1  402.23   14.72
  -4   3  -1  355.34   14.05
   4  -3   1  399.37   14.73
   4  -3   1  389.29   14.36
  -4   3  -1  394.35   13.72
  -4   3  -2  210.04    9.26
  -4   3  -2  208.16    9.64
   4  -3   2  215.85    9.53
   4  -3   2  207.91    9.77
  -4   3  -3   23.16    2.49
  -4   3  -3   19.69    2.60
  -4   3  -3   22.02    2.62
   4  -3   3   22.26    2.44
   4  -3   3   21.01    2.70
  -4   3  -4    0.88    0.71
  -4   3  -4    1.90    0.93
   4  -3   4    1.73    0.77
  -4   3  -4    1.59    0.92
   4  -3   5   20.57    2.42
  -4   3  -5   18.78    1.93
  -4   3  -5   17.83    2.18
  -4   3  -5   19.93    2.20
  -4   3  -6    2.15    0.63
   4  -3   6    2.63    0.87
   4  -3   7    0.84    0.52
  -4   3  -7    0.17    0.33
  -4   2  10   35.31    2.11
   4  -2  -9   11.06    1.39
  -4   2   9   15.14    1.88
  -4   2   9   15.52    1.70
  -4   2   9   12.62    1.48
   4  -2  -8   66.69    4.18
  -4   2   8   78.59    4.93
  -4   2   8   67.34    4.36
  -4   2   8   76.72    4.69
  -4   2   8   68.19    4.05
  -4   2   8   69.63    4.28
  -4   2   7   75.61    5.29
  -4   2   7   76.84    4.57
   4  -2  -7   69.43    4.60
  -4   2   7   76.17    5.18
  -4   2   7   78.33    5.29
  -4   2   7   74.40    4.80
  -4   2   7   69.86    4.72
  -4   2   6  204.28    8.60
  -4   2   6  212.24    9.08
   4  -2  -6  218.50    9.14
  -4   2   6  226.18   10.30
  -4   2   6  229.16   10.16
  -4   2   6  236.54   10.44
  -4   2   6  217.51    9.58
  -4   2   6  219.19    9.59
   4  -2  -6  228.07   10.69
  -4   2   5  524.82   17.18
  -4   2   5  566.59   17.23
  -4   2   5  576.52   17.74
  -4   2   5  562.46   17.77
  -4   2   5  555.42   18.89
  -4   2   5  563.10   18.93
  -4   2   5  550.85   18.41
  -4   2   5  548.99   18.22
  -4   2   5  541.00   17.98
   4  -2  -5  533.66   19.06
  -4   2   4    0.82    0.71
  -4   2   4    1.90    1.34
  -4   2   4    0.33    0.71
  -4   2   4    1.08    0.86
  -4   2   4    0.92    1.43
  -4   2   4   -0.01    0.75
  -4   2   4    0.72    0.90
  -4   2   4    1.61    1.17
  -4   2   4    1.69    0.94
   4  -2  -4    3.92    1.46
  -4   2   3    6.78    1.65
  -4   2   3    8.04    1.86
  -4   2   3    9.48    2.01
  -4   2   3    9.54    2.02
  -4   2   3    5.84    1.57
  -4   2   3    9.99    1.88
  -4   2   3    7.92    1.84
   4  -2  -3    4.64    1.49
  -4   2   3    6.21    1.53
   4  -2  -3    6.99    1.87
  -4   2   2   83.35    5.42
  -4   2   2   80.73    5.76
  -4   2   2   78.30    5.62
  -4   2   2   77.38    5.35
  -4   2   2   88.78    5.34
  -4   2   2   78.89    5.44
   4  -2  -2   80.24    5.77
  -4   2   2   84.76    5.42
   4  -2  -2   77.11    5.50
  -4   2   1  142.42    7.43
  -4   2   1  138.80    7.80
  -4   2   1  136.92    7.58
  -4   2   1  145.37    6.95
  -4   2   1  133.24    7.29
  -4   2   1  143.07    6.74
  -4   2   1  130.56    7.02
   4  -2  -1  137.68    7.71
  -4   2   1  137.42    7.13
   4  -2  -1  133.96    7.28
  -4   2   0   92.10    5.90
  -4   2   0   95.93    6.34
  -4   2   0   97.34    6.16
  -4   2   0   93.62    5.70
  -4   2   0   86.60    5.74
  -4   2   0   89.71    5.36
   4  -2   0   96.38    6.24
   4  -2   0   93.66    5.83
   4  -2   1   81.39    5.33
  -4   2  -1   96.37    6.30
   4  -2   1   85.99    5.37
  -4   2  -1   93.55    6.04
  -4   2  -1   85.98    5.67
  -4   2  -1   90.79    5.77
   4  -2   1   87.41    5.95
  -4   2  -2    1.04    0.94
   4  -2   2    3.30    1.25
  -4   2  -2   -0.43    1.10
  -4   2  -2   -0.18    0.78
   4  -2   2    5.01    1.57
   4  -2   2    0.66    1.03
  -4   2  -3 2178.79   53.15
  -4   2  -3 2155.67   54.03
  -4   2  -3 2074.39   54.08
   4  -2   3 2173.84   54.29
  -4   2  -3 2081.63   53.38
   4  -2   3 2219.71   55.12
  -4   2  -3 2043.13   53.05
  -4   2  -4   28.30    2.96
  -4   2  -4   25.68    3.08
  -4   2  -4   23.10    2.92
   4  -2   4   25.19    3.25
   4  -2   4   25.32    3.28
  -4   2  -4   21.10    2.80
  -4   2  -5   -1.38    1.05
  -4   2  -5    0.93    0.84
  -4   2  -5   -0.06    0.92
   4  -2   5    0.62    1.16
  -4   2  -6    5.84    1.26
  -4   2  -6    4.30    1.29
   4  -2   6    5.44    1.45
  -4   2  -6    5.01    1.47
  -4   2  -7    9.37    1.49
   4  -2   7   11.89    1.91
  -4   2  -7   13.96    1.98
   4  -2   8    0.21    0.55
  -4   2  -8    0.81    0.66
  -4   1  10    1.91    0.64
  -4   1  10    1.20    0.49
  -4   1   9   14.84    1.98
  -4   1   9   12.32    1.52
  -4   1   9   10.81    1.37
  -4   1   9   10.47    1.59
  -4   1   8    0.41    0.76
  -4   1   8    1.25    1.03
  -4   1   8   -0.55    0.80
  -4   1   8   -0.77    1.03
  -4   1   8   -0.78    1.06
  -4   1   7    0.26    0.99
  -4   1   7    0.05    0.90
  -4   1   7    0.04    0.80
  -4   1   7   -0.59    1.17
  -4   1   7   -0.50    0.97
  -4   1   7    0.05    1.06
  -4   1   6   66.88    5.24
  -4   1   6   67.50    5.17
  -4   1   6   73.98    5.41
  -4   1   6   63.34    4.90
  -4   1   6   64.89    4.93
  -4   1   6   66.41    5.19
   4  -1  -6   64.73    5.30
  -4   1   5    0.87    1.21
  -4   1   5    0.95    1.05
  -4   1   5    0.25    0.73
  -4   1   5    0.57    0.86
  -4   1   5    0.20    0.74
  -4   1   5    0.35    0.87
  -4   1   5    0.19    0.92
  -4   1   5    1.62    1.32
   4  -1  -5    0.10    1.02
  -4   1   4   34.10    3.06
  -4   1   4   27.81    2.92
  -4   1   4   34.55    3.30
  -4   1   4   30.36    3.00
  -4   1   4   25.20    3.13
  -4   1   4   27.42    3.19
  -4   1   4   29.37    2.93
  -4   1   4   33.59    3.22
  -4   1   4   31.71    3.49
  -4   1   4   30.43    3.31
  -4   1   4   30.89    3.28
  -4   1   4   30.74    3.42
   4  -1  -4   33.15    3.58
  -4   1   3   24.33    2.60
  -4   1   3   30.15    3.08
  -4   1   3   28.15    2.93
  -4   1   3   25.79    2.79
  -4   1   3   27.19    3.13
  -4   1   3   24.56    3.00
  -4   1   3   26.43    3.03
  -4   1   3   27.60    2.74
  -4   1   3   34.33    2.97
  -4   1   3   25.94    2.94
  -4   1   3   30.83    3.04
  -4   1   3   25.52    2.99
  -4   1   3   29.05    3.10
  -4   1   3   25.67    2.98
   4  -1  -3   21.46    2.79
  -4   1   2  188.91    8.01
  -4   1   2  170.75    8.15
  -4   1   2  167.23    8.32
  -4   1   2  176.24    8.34
  -4   1   2  184.57    8.18
  -4   1   2  184.49    7.92
  -4   1   2  187.60    8.25
  -4   1   2  177.90    8.00
  -4   1   2  176.45    8.29
  -4   1   2  176.20    8.46
  -4   1   2  174.87    8.26
   4  -1  -2  181.30    8.35
  -4   1   1  169.06    7.50
  -4   1   1  152.06    7.57
   4  -1  -1  139.63    7.03
  -4   1   1  156.58    7.88
  -4   1   1  150.78    7.48
  -4   1   1  159.98    7.54
   4  -1  -1  162.24    8.01
  -4   1   1  149.01    7.40
  -4   1   1  157.24    7.34
  -4   1   1  161.98    7.72
  -4   1   1  146.67    7.07
  -4   1   1  155.66    7.52
  -4   1   0  127.37    6.47
  -4   1   0  115.82    6.51
  -4   1   0  120.14    5.93
  -4   1   0  117.72    6.82
  -4   1   0  121.62    6.50
  -4   1   0  118.39    6.40
  -4   1   0  131.14    6.67
  -4   1   0  111.88    6.11
   4  -1   0  126.31    6.92
  -4   1   0  119.48    6.39
   4  -1   0  124.20    6.16
  -4   1  -1   29.70    3.14
  -4   1  -1   29.18    3.29
  -4   1  -1   37.61    3.41
  -4   1  -1   30.29    3.10
   4  -1   1   31.29    3.31
   4  -1   1   31.19    2.85
  -4   1  -2   42.83    3.82
  -4   1  -2   46.02    4.10
   4  -1   2   48.84    3.82
  -4   1  -2   41.53    3.69
  -4   1  -2   40.33    3.55
   4  -1   2   44.25    3.93
   4  -1   2   38.32    3.09
  -4   1  -3  342.50   12.41
  -4   1  -3  337.14   12.95
  -4   1  -3  351.67   13.11
   4  -1   3  339.70   12.81
  -4   1  -3  362.79   13.13
  -4   1  -3  338.07   12.29
  -4   1  -3  332.43   12.60
   4  -1   3  363.48   13.53
   4  -1   4   12.23    1.89
  -4   1  -4   17.41    2.19
  -4   1  -4   16.40    2.23
  -4   1  -4   17.29    2.56
  -4   1  -4   14.40    2.18
  -4   1  -4   15.26    2.39
   4  -1   4   10.96    2.01
   4  -1   4   14.55    2.44
  -4   1  -4   11.28    2.31
   4  -1   5  122.67    6.46
  -4   1  -5  127.51    7.03
   4  -1   5  128.27    7.45
  -4   1  -5  116.28    6.95
  -4   1  -5  132.38    7.61
   4  -1   5  125.32    7.58
   4  -1   6  402.73   14.20
  -4   1  -6  413.85   14.38
   4  -1   6  421.45   15.52
  -4   1  -6  405.61   14.78
  -4   1  -6  433.30   15.87
   4  -1   6  425.43   15.87
   4  -1   7   32.77    3.16
  -4   1  -7   29.80    2.78
   4  -1   7   31.35    3.42
  -4   1  -7   31.73    3.17
  -4   1  -7   37.54    3.92
   4  -1   8    7.41    1.42
   4  -1   8    9.61    1.82
  -4   1  -8    7.83    1.72
   4  -1   9    8.17    1.32
  -4   1  -9    9.99    1.54
  -4   0  10    2.14    0.58
  -4   0  10    0.80    0.42
  -4   0   9    2.99    1.03
  -4   0   9    4.12    0.99
  -4   0   9    3.43    0.93
  -4   0   9    5.50    1.28
  -4   0   8  124.71    6.72
  -4   0   8  134.99    6.36
  -4   0   8  129.70    6.75
  -4   0   8  129.33    6.50
  -4   0   8  125.86    6.94
  -4   0   7   85.92    5.76
  -4   0   7   81.65    5.81
  -4   0   7   93.51    5.74
  -4   0   7   85.79    4.81
  -4   0   7   79.20    5.61
  -4   0   7   92.71    5.78
  -4   0   7   87.78    5.53
   4   0  -7   87.39    6.21
   4   0  -6    4.10    1.60
   4   0  -6    3.61    1.41
  -4   0   6    4.52    1.64
  -4   0   6    2.98    1.30
  -4   0   6   -0.17    1.04
  -4   0   6    3.12    1.27
  -4   0   6    2.08    1.10
  -4   0   6    2.34    1.07
  -4   0   6    1.57    0.92
  -4   0   6    1.20    1.12
   4   0  -5   58.54    4.34
  -4   0   5   64.53    5.00
  -4   0   5   69.77    4.55
  -4   0   5   79.52    5.51
  -4   0   5   67.15    5.05
  -4   0   5   62.51    4.45
  -4   0   5   65.08    4.99
  -4   0   5   68.21    5.01
  -4   0   5   65.98    5.19
   4   0  -5   57.30    4.81
   4   0  -4  495.72   15.53
  -4   0   4  517.37   15.79
  -4   0   4  522.85   15.83
  -4   0   4  535.45   16.34
  -4   0   4  510.81   17.03
  -4   0   4  545.22   16.46
  -4   0   4  498.70   16.91
  -4   0   4  533.76   17.49
  -4   0   4  480.03   16.13
  -4   0   4  499.81   17.01
  -4   0   4  507.43   16.78
  -4   0   4  507.51   15.58
  -4   0   4  478.82   16.99
   4   0  -4  499.01   17.04
  -4   0   3   17.74    2.16
   4   0  -3   14.17    1.68
  -4   0   3   17.08    2.49
  -4   0   3   15.43    2.05
  -4   0   3   15.13    2.04
  -4   0   3   14.66    2.10
  -4   0   3   17.12    2.31
  -4   0   3   17.10    2.16
  -4   0   3   18.27    2.52
  -4   0   3   13.06    2.06
  -4   0   3   16.11    2.33
  -4   0   3   16.45    2.25
  -4   0   3   14.02    2.26
   4   0  -3   18.38    2.42
  -4   0   2   -0.50    1.07
  -4   0   2    0.96    0.97
  -4   0   2   -1.62    0.92
  -4   0   2    1.05    0.90
  -4   0   2    0.48    0.59
  -4   0   2   -0.16    0.76
  -4   0   2    0.54    0.58
  -4   0   2    0.58    0.81
  -4   0   2    0.90    0.89
  -4   0   2    0.66    0.94
  -4   0   2    0.26    0.64
  -4   0   2   -0.75    0.80
   4   0  -2    0.19    0.75
  -4   0   1  215.94    8.68
  -4   0   1  214.71    8.59
  -4   0   1  209.01    8.94
  -4   0   1  195.17    8.28
  -4   0   1  197.89    8.27
  -4   0   1  219.14    8.72
  -4   0   1  205.48    8.42
  -4   0   1  199.24    8.20
  -4   0   1  202.63    8.71
  -4   0   1  198.88    8.46
  -4   0   1  211.61    8.27
  -4   0   1  209.35    8.71
   4   0  -1  180.42    7.77
  -4   0   0  245.58    9.81
  -4   0   0  265.42    9.95
  -4   0   0  268.36   10.49
  -4   0   0  257.13    9.71
  -4   0   0  268.37    9.89
  -4   0   0  275.35   10.21
  -4   0   0  246.89    9.39
  -4   0   0  260.17    9.93
  -4   0   0  264.25    9.64
  -4   0   0  263.90    9.87
   4   0   0  249.35   10.01
  -4   0   0  259.43    9.31
  -4   0   0  252.37    9.89
   4   0   0  257.21    9.08
  -4   0  -1  426.33   14.30
  -4   0  -1  434.59   14.36
  -4   0  -1  439.08   14.91
  -4   0  -1  448.31   14.14
  -4   0  -1  434.82   14.21
  -4   0  -1  439.70   14.67
   4   0   1  447.97   14.68
  -4   0  -1  443.01   14.46
   4   0   1  452.61   13.07
  -4   0  -2   21.37    2.46
   4   0   2   16.38    1.83
  -4   0  -2   17.76    2.30
   4   0   2   17.01    2.29
  -4   0  -2   23.04    2.54
  -4   0  -2   14.72    2.13
  -4   0  -2   18.77    2.16
  -4   0  -2   19.04    2.25
  -4   0  -3   64.45    4.46
   4   0   3   53.94    3.61
  -4   0  -3   57.08    4.05
  -4   0  -3   52.88    3.87
  -4   0  -3   51.26    4.11
  -4   0  -3   57.64    4.25
   4   0   3   64.35    4.31
  -4   0  -3   56.38    4.01
  -4   0  -3   61.74    4.11
   4   0   3   50.27    4.14
   4   0   4 1069.65   29.28
  -4   0  -4 1085.40   29.40
  -4   0  -4 1123.12   29.49
  -4   0  -4 1109.00   30.13
  -4   0  -4 1083.63   30.45
   4   0   4 1100.01   30.48
  -4   0  -4 1181.92   30.74
  -4   0  -4 1110.24   29.24
  -4   0  -4 1110.32   30.88
   4   0   4 1068.91   30.65
   4   0   5  546.69   17.45
  -4   0  -5  538.85   17.92
   4   0   5  569.70   18.59
  -4   0  -5  531.13   17.95
  -4   0  -5  604.25   19.23
   4   0   5  533.32   18.51
   4   0   6    4.12    1.48
  -4   0  -6    6.21    1.82
  -4   0  -6    5.62    1.58
   4   0   6    5.22    1.56
   4   0   6    2.61    1.34
  -4   0  -6    4.24    1.81
   4   0   7   14.67    2.30
  -4   0  -7   16.68    2.43
  -4   0  -7   16.85    2.46
   4   0   7   17.17    2.69
  -4   0  -7   15.65    2.18
   4   0   7   15.05    2.53
   4   0   7   16.28    2.78
  -4   0  -7   12.69    2.49
   4   0   8   30.03    3.24
  -4   0  -8   38.72    3.31
   4   0   8   38.10    3.83
  -4   0  -8   37.32    3.43
  -4   0  -8   42.55    4.14
   4   0   9  112.64    5.97
   4   0   9  108.78    6.16
  -4   0  -9  113.87    6.36
   4   0  10    1.51    0.72
  -4   0 -10    2.29    0.76
  -4   0 -10    1.08    0.73
  -4  -1  10   22.44    1.66
  -4  -1   9   19.82    1.97
  -4  -1   9   17.49    1.97
  -4  -1   9   21.05    1.99
  -4  -1   9   18.63    2.11
  -4  -1   8   -0.29    0.91
  -4  -1   8    1.01    1.14
  -4  -1   8    1.96    1.04
  -4  -1   8    0.16    0.89
  -4  -1   7   23.17    2.89
  -4  -1   7   27.31    2.80
  -4  -1   7   24.34    2.60
  -4  -1   7   21.31    2.95
  -4  -1   7   24.10    2.88
  -4  -1   7   22.03    2.94
   4   1  -6   16.76    2.48
  -4  -1   6   22.00    2.74
  -4  -1   6   13.96    2.49
  -4  -1   6   11.90    2.10
  -4  -1   6   17.97    2.48
  -4  -1   6   15.86    2.20
  -4  -1   6   17.33    2.35
  -4  -1   6   15.05    2.50
  -4  -1   6   13.41    2.33
   4   1  -5    4.12    1.25
  -4  -1   5    1.99    1.11
  -4  -1   5    2.42    1.31
  -4  -1   5    4.64    1.37
  -4  -1   5    2.41    1.02
  -4  -1   5    1.87    1.19
  -4  -1   5    3.96    1.29
  -4  -1   5    0.80    0.89
  -4  -1   5    2.72    1.34
   4   1  -4   -0.09    0.71
  -4  -1   4    1.65    0.89
  -4  -1   4   -0.07    0.71
  -4  -1   4    0.01    0.97
  -4  -1   4    0.79    0.79
  -4  -1   4    0.78    0.97
  -4  -1   4    0.20    0.74
  -4  -1   4   -0.48    0.50
  -4  -1   4    1.01    1.07
  -4  -1   4    1.17    0.81
  -4  -1   4    1.72    1.12
   4   1  -3    0.80    0.54
  -4  -1   3    2.53    1.23
  -4  -1   3    3.20    0.90
  -4  -1   3    3.08    1.00
  -4  -1   3    3.76    1.02
  -4  -1   3    2.45    0.95
  -4  -1   3    1.26    0.80
  -4  -1   3    2.98    1.16
  -4  -1   3    1.45    0.66
  -4  -1   3    0.92    0.82
  -4  -1   3    2.05    1.28
  -4  -1   3    3.28    1.20
  -4  -1   2    3.00    1.09
   4   1  -2    7.74    1.23
  -4  -1   2    5.35    1.49
  -4  -1   2    3.35    1.14
  -4  -1   2    4.52    1.13
  -4  -1   2    5.00    1.24
  -4  -1   2    7.45    1.61
  -4  -1   2    3.36    0.96
  -4  -1   2    3.95    1.19
  -4  -1   2    5.52    1.30
  -4  -1   2    5.39    1.23
  -4  -1   2    5.50    1.38
  -4  -1   2    5.99    1.29
  -4  -1   2    4.06    1.21
   4   1  -1  488.96   13.06
  -4  -1   1  481.89   14.91
  -4  -1   1  471.05   14.70
  -4  -1   1  466.51   15.18
  -4  -1   1  477.19   14.99
  -4  -1   1  478.86   15.08
  -4  -1   1  459.75   14.47
  -4  -1   1  443.49   15.03
  -4  -1   1  477.56   14.68
  -4  -1   1  462.60   14.76
  -4  -1   1  462.20   15.00
  -4  -1   1  484.08   15.02
   4   1  -1  476.52   14.12
  -4  -1   0  172.52    7.44
  -4  -1   0  170.43    7.28
  -4  -1   0  178.59    7.83
  -4  -1   0  172.40    7.22
  -4  -1   0  167.40    7.44
  -4  -1   0  166.02    7.02
   4   1   0  161.81    7.16
  -4  -1   0  180.11    7.58
  -4  -1   0  173.11    7.43
   4   1   0  172.87    6.41
   4   1   1  582.06   15.08
  -4  -1  -1  543.37   16.88
  -4  -1  -1  546.80   16.86
  -4  -1  -1  557.78   17.39
  -4  -1  -1  577.82   16.84
   4   1   1  555.70   16.78
  -4  -1  -1  559.75   17.25
  -4  -1  -1  596.26   17.12
  -4  -1  -1  578.53   17.19
  -4  -1  -2  223.12    8.84
  -4  -1  -2  229.37    8.86
  -4  -1  -2  223.72    9.18
  -4  -1  -2  244.91    9.00
  -4  -1  -2  232.50    8.77
   4   1   2  221.00    8.72
  -4  -1  -2  228.70    8.84
  -4  -1  -2  235.27    9.05
  -4  -1  -2  219.27    9.14
   4   1   3   34.03    2.85
  -4  -1  -3   40.08    3.21
  -4  -1  -3   37.31    3.16
  -4  -1  -3   47.90    3.76
  -4  -1  -3   40.89    3.33
  -4  -1  -3   45.02    3.38
  -4  -1  -3   39.87    3.16
   4   1   3   37.94    3.23
  -4  -1  -3   43.48    3.49
  -4  -1  -3   41.52    3.30
   4   1   4  355.99   12.34
  -4  -1  -4  357.02   12.13
  -4  -1  -4  358.28   12.16
  -4  -1  -4  356.31   12.60
  -4  -1  -4  372.89   12.95
   4   1   4  381.23   12.84
  -4  -1  -4  387.98   12.93
  -4  -1  -4  370.67   12.10
  -4  -1  -4  358.55   13.09
   4   1   4  344.65   12.63
   4   1   5    8.01    1.58
  -4  -1  -5    5.37    1.22
  -4  -1  -5    5.74    1.19
  -4  -1  -5    8.55    1.75
  -4  -1  -5    6.16    1.53
   4   1   5    7.33    1.73
   4   1   5    7.37    1.73
  -4  -1  -5    7.64    1.89
   4   1   6   67.68    4.93
   4   1   6   73.86    4.61
  -4  -1  -6   64.36    4.83
   4   1   6   78.54    5.53
  -4  -1  -6   68.34    5.02
  -4  -1  -6   75.78    5.70
   4   1   6   61.37    4.94
   4   1   7  231.68   10.39
  -4  -1  -7  243.39   10.15
  -4  -1  -7  238.25   10.18
   4   1   7  244.42   11.13
  -4  -1  -7  226.52   10.28
  -4  -1  -7  245.85   11.46
   4   1   7  240.42   10.92
   4   1   8   20.83    2.79
   4   1   8   19.27    2.92
  -4  -1  -8   16.65    2.31
   4   1   8   16.57    2.63
   4   1   8   20.30    2.90
  -4  -1  -8   27.42    3.53
   4   1   9   77.68    5.26
  -4  -1  -9   88.07    5.28
   4   1   9   73.87    5.47
  -4  -1  -9   76.24    5.60
   4   1  10   12.92    1.89
  -4  -1 -10   15.97    1.90
   4   1  10   14.49    2.05
  -4  -1 -10   16.77    1.80
  -4  -1 -10   13.12    2.00
  -4  -1 -11    0.47    0.50
   4   1  11    0.67    0.57
  -4  -1 -11    0.03    0.44
  -4  -2   9   28.87    2.32
  -4  -2   9   27.29    2.03
  -4  -2   9   28.91    2.26
  -4  -2   8   40.02    2.67
  -4  -2   8   41.65    3.48
  -4  -2   8   39.18    3.14
  -4  -2   8   36.88    3.25
  -4  -2   7  132.18    6.66
  -4  -2   7  148.16    6.75
  -4  -2   7  143.09    7.60
  -4  -2   7  140.49    7.18
  -4  -2   7  142.36    7.52
   4   2  -6   31.39    3.43
  -4  -2   6   32.86    3.22
  -4  -2   6   31.75    3.11
  -4  -2   6   33.40    3.30
  -4  -2   6   33.82    3.69
  -4  -2   6   32.98    3.42
  -4  -2   6   32.68    3.51
   4   2  -5  102.02    6.31
  -4  -2   5  107.01    6.07
  -4  -2   5  112.66    6.45
  -4  -2   5   99.82    6.25
  -4  -2   5  107.38    6.32
  -4  -2   5  121.86    6.53
  -4  -2   5  111.28    6.82
  -4  -2   5  105.82    6.45
  -4  -2   5  101.44    6.54
   4   2  -4   39.72    3.58
  -4  -2   4   42.35    3.52
  -4  -2   4   41.39    3.79
  -4  -2   4   49.38    4.11
   4   2  -4   41.38    3.49
  -4  -2   4   45.74    3.90
  -4  -2   4   41.84    3.69
  -4  -2   4   44.17    4.04
  -4  -2   4   47.14    4.04
  -4  -2   4   37.71    3.71
  -4  -2   3   25.54    2.92
  -4  -2   3   25.08    2.46
  -4  -2   3   28.62    2.63
  -4  -2   3   27.58    2.50
  -4  -2   3   23.31    2.70
   4   2  -3   24.76    2.55
  -4  -2   3   27.32    2.87
  -4  -2   3   26.38    2.85
  -4  -2   3   28.20    2.98
  -4  -2   3   27.31    2.87
  -4  -2   3   24.50    2.47
  -4  -2   3   27.59    3.01
  -4  -2   2   34.30    3.20
  -4  -2   2   33.64    2.94
  -4  -2   2   33.83    2.92
  -4  -2   2   32.36    2.67
  -4  -2   2   33.31    2.82
  -4  -2   2   28.46    2.99
  -4  -2   2   28.86    2.90
  -4  -2   2   37.89    3.23
  -4  -2   2   37.29    3.32
  -4  -2   2   35.61    3.12
  -4  -2   2   37.48    3.07
  -4  -2   2   37.63    3.32
  -4  -2   1   32.65    2.93
  -4  -2   1   35.90    2.97
  -4  -2   1   31.00    2.71
  -4  -2   1   34.70    3.18
  -4  -2   1   32.17    2.96
  -4  -2   1   35.03    3.08
  -4  -2   1   36.49    3.01
  -4  -2   1   29.15    2.71
  -4  -2   1   30.00    2.71
  -4  -2   1   29.88    2.76
  -4  -2   1   30.92    2.85
  -4  -2   0   24.88    2.63
  -4  -2   0   20.32    2.40
  -4  -2   0   25.52    2.52
  -4  -2   0   24.49    2.45
  -4  -2   0   18.02    2.28
  -4  -2   0   22.81    2.44
   4   2   0   22.36    2.13
  -4  -2   0   22.11    2.44
  -4  -2  -1   16.09    1.99
  -4  -2  -1   17.41    2.12
  -4  -2  -1   14.30    1.88
   4   2   1   15.67    1.75
  -4  -2  -1   18.00    2.18
  -4  -2  -2 1804.50   45.66
  -4  -2  -2 1877.54   45.60
  -4  -2  -2 1851.36   45.31
  -4  -2  -2 1803.37   45.79
   4   2   2 1888.34   44.74
  -4  -2  -2 1819.61   45.59
  -4  -2  -3   97.83    5.36
  -4  -2  -3  103.80    5.40
  -4  -2  -3  105.93    5.44
  -4  -2  -3  100.79    5.14
  -4  -2  -3   99.89    5.18
  -4  -2  -3   99.83    5.57
   4   2   3  107.22    5.15
  -4  -2  -3  105.00    5.48
   4   2   4   65.60    4.33
  -4  -2  -4   55.97    3.89
  -4  -2  -4   54.15    3.79
  -4  -2  -4   63.26    4.28
  -4  -2  -4   60.20    4.08
  -4  -2  -4   58.36    3.78
  -4  -2  -4   54.15    4.18
  -4  -2  -4   60.40    4.30
   4   2   4   60.19    3.98
  -4  -2  -4   62.30    4.09
   4   2   5   84.00    5.24
  -4  -2  -5   84.01    4.77
  -4  -2  -5   83.96    4.75
   4   2   5   83.76    5.12
  -4  -2  -5   77.17    5.04
   4   2   5   89.24    5.43
  -4  -2  -5   88.20    5.26
  -4  -2  -5   77.07    4.40
  -4  -2  -5   83.26    5.59
   4   2   5   90.51    5.23
  -4  -2  -5   83.00    4.78
   4   2   6 1106.05   31.37
   4   2   6 1199.61   30.93
  -4  -2  -6 1159.73   30.99
  -4  -2  -6 1118.13   31.30
   4   2   6 1150.37   31.93
  -4  -2  -6 1151.18   31.48
  -4  -2  -6 1157.24   32.73
   4   2   6 1094.55   31.15
   4   2   7   14.66    2.33
  -4  -2  -7   15.13    2.35
   4   2   7   16.13    2.65
   4   2   7   14.43    2.34
  -4  -2  -7   17.17    2.84
   4   2   8   54.91    4.68
  -4  -2  -8   53.51    4.49
   4   2   8   51.58    4.70
  -4  -2  -8   51.25    4.92
   4   2   8   57.28    4.78
   4   2   9  110.68    6.56
  -4  -2  -9  101.91    6.17
   4   2   9  111.69    6.96
  -4  -2  -9  102.81    6.76
   4   2  10  128.52    6.70
  -4  -2 -10  130.62    6.52
   4   2  10  129.76    7.02
  -4  -2 -10  134.52    7.10
   4   2  11   12.24    1.65
  -4  -2 -11   14.19    1.60
  -4  -2 -11   12.22    1.54
   4   2  11   13.02    1.77
  -4  -2 -11   12.67    1.71
  -4  -3   9    7.29    0.96
  -4  -3   8    3.63    0.75
  -4  -3   8    5.18    1.11
  -4  -3   8    3.28    0.90
  -4  -3   8    4.03    0.92
  -4  -3   7   60.77    3.94
  -4  -3   7   65.38    4.67
  -4  -3   7   72.46    4.64
  -4  -3   7   62.70    4.23
  -4  -3   6   30.47    2.67
  -4  -3   6   29.16    3.06
  -4  -3   6   36.61    3.81
  -4  -3   6   32.91    3.53
  -4  -3   6   33.64    3.37
   4   3  -5    5.99    1.73
  -4  -3   5    5.40    1.30
  -4  -3   5    7.47    1.44
  -4  -3   5    9.08    1.74
   4   3  -5    5.45    1.32
  -4  -3   5    8.21    1.82
  -4  -3   5    7.93    1.78
  -4  -3   5    4.66    1.47
  -4  -3   5    6.42    1.75
  -4  -3   4    1.22    0.94
  -4  -3   4    0.82    0.70
  -4  -3   4    3.70    1.14
  -4  -3   4    2.21    1.42
  -4  -3   4    2.29    0.91
  -4  -3   4    0.87    0.77
   4   3  -4    0.18    0.79
  -4  -3   4    1.07    0.98
  -4  -3   4    2.52    1.26
  -4  -3   4    0.58    1.17
  -4  -3   3   12.23    1.76
  -4  -3   3    9.23    1.51
  -4  -3   3    9.77    1.80
  -4  -3   3   10.90    1.69
  -4  -3   3   10.11    1.85
   4   3  -3   11.57    1.99
  -4  -3   3    9.55    1.97
  -4  -3   3   10.29    2.02
  -4  -3   3   11.53    2.07
  -4  -3   3    9.95    1.87
  -4  -3   3   11.38    1.70
  -4  -3   2   76.74    4.74
  -4  -3   2   82.74    4.79
   4   3  -2   87.85    4.51
  -4  -3   2   84.13    4.82
  -4  -3   2   80.12    5.21
  -4  -3   2   80.51    5.11
  -4  -3   2   78.45    4.58
  -4  -3   2   82.44    5.15
  -4  -3   2   86.29    5.21
  -4  -3   2   78.08    4.93
  -4  -3   2   81.56    4.86
  -4  -3   2   86.53    5.07
  -4  -3   1   54.53    4.02
  -4  -3   1   58.02    3.96
  -4  -3   1   52.98    3.76
   4   3  -1   52.29    3.64
  -4  -3   1   57.37    4.19
  -4  -3   1   56.78    3.72
  -4  -3   1   52.75    4.03
  -4  -3   1   58.84    4.12
  -4  -3   1   53.80    3.82
  -4  -3   1   59.07    3.94
  -4  -3   1   54.58    3.95
  -4  -3   1   58.24    3.94
  -4  -3   0   55.16    3.97
  -4  -3   0   49.38    3.60
   4   3   0   51.74    3.65
  -4  -3   0   53.04    3.70
  -4  -3   0   48.94    3.56
  -4  -3   0   52.15    3.86
  -4  -3   0   49.87    3.46
  -4  -3   0   50.10    3.73
  -4  -3   0   50.38    3.63
   4   3   0   54.44    3.06
  -4  -3   0   50.15    3.75
  -4  -3  -1   20.37    2.54
  -4  -3  -1   21.63    2.50
   4   3   1   22.80    2.57
  -4  -3  -1   21.27    2.45
  -4  -3  -1   20.41    2.46
  -4  -3  -1   21.22    2.53
  -4  -3  -1   19.84    2.48
   4   3   1   22.48    1.89
  -4  -3  -1   24.42    2.74
  -4  -3  -2  228.88    9.18
  -4  -3  -2  229.39    8.91
  -4  -3  -2  227.88    8.77
   4   3   2  234.65    9.14
  -4  -3  -2  234.52    9.03
  -4  -3  -2  208.95    8.47
  -4  -3  -2  223.94    8.83
   4   3   2  224.80    7.41
  -4  -3  -2  215.54    8.87
   4   3   3   15.16    1.66
  -4  -3  -3   14.05    1.97
  -4  -3  -3   14.05    2.13
   4   3   3   13.64    2.10
  -4  -3  -3   13.94    2.04
  -4  -3  -3   13.94    1.94
  -4  -3  -3   17.87    2.24
  -4  -3  -3   15.72    2.02
   4   3   3   16.59    1.67
  -4  -3  -3   13.50    2.09
  -4  -3  -3   13.01    1.97
  -4  -3  -4  108.17    5.86
  -4  -3  -4  112.06    5.74
   4   3   4  119.71    6.25
  -4  -3  -4  106.12    6.15
  -4  -3  -4  110.83    5.81
   4   3   4  115.68    5.19
  -4  -3  -4  113.11    5.89
  -4  -3  -5   35.60    3.15
   4   3   5   31.15    3.25
  -4  -3  -5   28.67    2.76
   4   3   5   31.31    3.14
   4   3   5   32.25    2.75
   4   3   5   23.40    2.65
  -4  -3  -5   27.80    3.21
  -4  -3  -5   24.30    2.62
  -4  -3  -5   32.08    2.98
   4   3   6   69.82    4.98
  -4  -3  -6   71.51    4.37
  -4  -3  -6   61.18    4.51
   4   3   6   68.66    4.73
   4   3   6   68.05    4.90
  -4  -3  -6   68.99    5.31
   4   3   6   59.74    4.21
  -4  -3  -6   69.85    4.36
   4   3   7   10.07    2.09
   4   3   7   12.51    2.02
  -4  -3  -7    9.90    1.89
   4   3   7   11.58    2.25
   4   3   7   11.21    1.96
  -4  -3  -7   13.07    2.47
   4   3   8    2.88    1.43
  -4  -3  -8    2.63    1.19
   4   3   8    2.77    1.20
   4   3   8    2.85    1.45
  -4  -3  -8    1.49    1.45
   4   3   9  299.19   12.01
  -4  -3  -9  290.74   11.97
  -4  -3  -9  310.77   11.01
   4   3   9  295.23   12.51
  -4  -3  -9  291.00   12.51
   4   3  10  202.73    8.90
  -4  -3 -10  196.93    8.80
   4   3  10  205.96    9.39
  -4  -3 -10  201.29    9.21
   4   3  11   10.88    1.62
  -4  -3 -11   10.40    1.47
  -4  -3 -11   10.92    1.66
   4   3  11   13.87    1.97
   4   3  12    4.91    0.91
  -4  -4   8   17.85    1.54
  -4  -4   8   17.12    1.45
  -4  -4   7    4.16    0.93
  -4  -4   7    3.75    1.04
  -4  -4   7    3.95    1.04
  -4  -4   6  122.69    5.82
  -4  -4   6  125.35    5.81
  -4  -4   6  124.29    6.29
  -4  -4   6  129.15    6.70
  -4  -4   6  127.40    6.54
  -4  -4   5   73.06    4.33
  -4  -4   5   64.36    4.29
  -4  -4   5   75.31    4.66
  -4  -4   5   67.79    4.85
  -4  -4   5   64.46    4.89
  -4  -4   5   66.00    4.91
  -4  -4   4   16.75    2.26
  -4  -4   4   20.35    2.46
  -4  -4   4   12.39    1.91
  -4  -4   4   15.29    2.06
   4   4  -4   12.16    2.25
  -4  -4   4   15.41    2.40
  -4  -4   4   19.13    2.64
  -4  -4   4   16.01    2.54
  -4  -4   3   92.88    5.49
  -4  -4   3  100.05    5.66
  -4  -4   3   90.08    5.14
  -4  -4   3   85.95    5.88
  -4  -4   3   97.00    5.58
   4   4  -3   79.48    5.84
  -4  -4   3   91.54    5.99
  -4  -4   3   89.54    5.75
  -4  -4   3   92.89    5.92
  -4  -4   2    0.58    0.95
  -4  -4   2    6.56    1.48
  -4  -4   2    1.51    1.02
  -4  -4   2    0.68    0.83
  -4  -4   2    1.01    0.92
  -4  -4   2    1.61    1.08
  -4  -4   2    1.55    0.80
  -4  -4   2    1.24    0.86
   4   4  -2    0.24    1.00
  -4  -4   2    2.34    1.22
  -4  -4   2    1.27    1.00
  -4  -4   2    6.37    1.39
  -4  -4   1    1.05    0.94
  -4  -4   1    0.74    0.83
   4   4  -1    0.55    0.65
  -4  -4   1    0.67    0.80
  -4  -4   1    0.75    0.88
  -4  -4   1   -0.55    0.78
  -4  -4   1    0.64    0.73
  -4  -4   1    0.49    0.74
  -4  -4   1    1.04    1.14
  -4  -4   1    0.81    0.73
  -4  -4   1    1.14    0.67
  -4  -4   0   27.55    2.82
  -4  -4   0   17.73    2.09
  -4  -4   0   22.72    2.69
   4   4   0   24.39    2.57
  -4  -4   0   20.64    2.54
  -4  -4   0   25.48    2.75
  -4  -4   0   28.93    2.97
  -4  -4   0   22.42    2.49
  -4  -4   0   22.29    2.45
  -4  -4   0   22.59    2.61
  -4  -4   0   19.84    2.30
  -4  -4   0   21.89    2.63
  -4  -4  -1  148.68    7.51
  -4  -4  -1  152.22    7.15
  -4  -4  -1  153.48    7.19
   4   4   1  150.60    7.18
  -4  -4  -1  159.45    7.34
  -4  -4  -1  144.58    6.90
  -4  -4  -1  150.89    7.11
  -4  -4  -1  147.02    7.11
  -4  -4  -1  156.16    6.86
  -4  -4  -1  150.89    7.44
  -4  -4  -2    5.22    1.48
  -4  -4  -2    3.55    1.15
   4   4   2    8.42    1.70
  -4  -4  -2    2.83    1.14
  -4  -4  -2    4.08    1.09
  -4  -4  -2    4.26    1.25
  -4  -4  -2    4.04    1.19
  -4  -4  -2    4.31    1.19
  -4  -4  -2    5.81    1.48
   4   4   3  641.53   18.52
  -4  -4  -3  635.89   19.77
  -4  -4  -3  633.83   19.11
   4   4   3  636.63   19.52
  -4  -4  -3  653.10   19.42
  -4  -4  -3  659.79   18.80
  -4  -4  -3  619.58   19.05
  -4  -4  -3  625.00   19.58
   4   4   4  282.08    9.98
  -4  -4  -4  292.62   11.24
  -4  -4  -4  281.28   10.34
  -4  -4  -4  260.41   10.37
   4   4   4  285.21   11.22
  -4  -4  -4  278.62   10.84
  -4  -4  -4  286.79   10.71
  -4  -4  -4  282.50   10.99
   4   4   5    5.25    1.22
  -4  -4  -5    2.07    1.10
  -4  -4  -5    5.65    1.55
   4   4   5    6.13    1.61
  -4  -4  -5    5.68    1.40
  -4  -4  -5    5.52    1.34
  -4  -4  -5    7.32    1.68
   4   4   5    5.09    1.46
  -4  -4  -5    6.10    1.52
   4   4   6   33.93    2.81
  -4  -4  -6   30.71    3.03
   4   4   6   32.87    3.46
  -4  -4  -6   27.58    2.72
   4   4   6   26.76    3.09
  -4  -4  -6   19.88    2.61
   4   4   6   29.12    3.15
  -4  -4  -6   24.35    2.86
  -4  -4  -6   27.02    3.34
  -4  -4  -6   26.01    2.80
   4   4   7  118.61    6.84
  -4  -4  -7  117.30    6.81
   4   4   7  116.83    6.58
  -4  -4  -7  117.84    6.37
   4   4   7   99.44    6.49
  -4  -4  -7  100.43    6.84
   4   4   8  100.79    6.30
  -4  -4  -8  106.98    6.61
  -4  -4  -8  108.20    5.80
  -4  -4  -8  104.66    6.54
   4   4   8   92.58    6.43
  -4  -4  -8  100.65    6.79
   4   4   9    4.76    1.39
  -4  -4  -9    1.67    1.16
  -4  -4  -9    4.68    1.50
   4   4   9    1.20    1.15
   4   4  10   92.35    5.47
  -4  -4 -10  103.80    6.01
  -4  -4 -10   92.17    5.45
   4   4  10   91.78    5.86
   4   4  11    2.10    0.92
  -4  -4 -11    1.83    0.87
  -4  -4 -11    3.28    1.06
   4   4  11    2.05    0.95
  -4  -4 -12  191.46    6.24
   4   4  12  188.56    6.56
  -4  -5   7   -0.04    0.34
  -4  -5   6   12.90    1.54
  -4  -5   6   14.20    1.72
  -4  -5   6   14.34    1.69
  -4  -5   6   13.38    1.74
  -4  -5   5    6.06    1.25
  -4  -5   5   10.49    1.65
  -4  -5   5    9.11    1.64
  -4  -5   5    5.30    1.27
  -4  -5   5    5.57    1.36
  -4  -5   5    5.81    1.38
  -4  -5   4    0.94    0.85
  -4  -5   4    0.87    0.62
  -4  -5   4   -0.21    0.82
  -4  -5   4    0.37    0.86
  -4  -5   4   -0.01    0.73
  -4  -5   4    0.61    1.05
  -4  -5   3   22.61    2.77
  -4  -5   3   20.34    2.36
  -4  -5   3   22.21    2.72
   4   5  -3   15.58    2.55
  -4  -5   3   21.40    2.85
  -4  -5   3   20.51    2.60
  -4  -5   3   19.74    2.74
  -4  -5   2    1.87    0.78
  -4  -5   2    3.29    1.21
  -4  -5   2   -0.19    0.85
  -4  -5   2    1.45    0.65
  -4  -5   2    0.67    0.95
  -4  -5   2    1.09    0.87
   4   5  -2   -0.52    1.11
  -4  -5   2    1.63    0.91
  -4  -5   2    0.72    0.75
  -4  -5   2    2.80    1.27
  -4  -5   1    8.62    1.74
  -4  -5   1   10.15    1.90
  -4  -5   1   11.32    2.14
  -4  -5   1    8.66    1.77
  -4  -5   1    8.73    1.94
  -4  -5   1   12.82    2.02
   4   5  -1   11.43    2.32
  -4  -5   1   10.81    1.96
  -4  -5   1    9.81    1.81
  -4  -5   1    6.68    1.65
  -4  -5   0    6.34    1.64
  -4  -5   0    4.68    1.39
   4   5   0    5.84    1.40
  -4  -5   0    5.07    1.45
  -4  -5   0    3.02    1.10
  -4  -5   0    5.66    1.42
  -4  -5   0    5.45    1.42
  -4  -5   0    4.40    1.44
  -4  -5   0    4.27    1.22
  -4  -5   0    3.58    1.26
  -4  -5   0    3.22    1.14
  -4  -5   0    3.63    1.16
  -4  -5  -1    0.21    0.82
  -4  -5  -1    0.07    1.12
   4   5   1   -0.66    0.94
  -4  -5  -1    0.57    0.86
  -4  -5  -1    1.68    0.95
  -4  -5  -1    0.12    0.89
  -4  -5  -1    0.85    0.97
  -4  -5  -1   -0.67    0.79
  -4  -5  -1   -0.03    0.73
  -4  -5  -1    0.69    0.94
  -4  -5  -1   -2.22    1.09
  -4  -5  -2   13.27    2.50
  -4  -5  -2   18.25    2.70
   4   5   2   14.64    2.35
  -4  -5  -2   21.46    2.76
  -4  -5  -2   17.80    2.58
  -4  -5  -2   15.98    2.62
  -4  -5  -2   19.57    2.82
  -4  -5  -2   19.81    2.40
   4   5   3  180.97    8.29
  -4  -5  -3  180.19    9.06
  -4  -5  -3  187.66    8.19
  -4  -5  -3  167.10    8.13
   4   5   3  180.54    8.73
  -4  -5  -3  182.78    8.36
  -4  -5  -3  182.24    8.52
  -4  -5  -3  171.07    7.77
  -4  -5  -3  190.83    9.04
   4   5   4    0.50    0.66
  -4  -5  -4   -0.27    0.99
  -4  -5  -4    1.05    0.91
   4   5   4   -0.70    0.90
  -4  -5  -4    0.39    0.78
  -4  -5  -4    0.15    0.72
  -4  -5  -4    1.14    0.99
  -4  -5  -4    0.13    0.90
  -4  -5  -4    1.02    0.71
   4   5   5   20.71    2.51
  -4  -5  -5   24.26    2.82
  -4  -5  -5   22.90    2.95
   4   5   5   23.67    3.10
  -4  -5  -5   23.90    2.69
  -4  -5  -5   19.95    2.63
  -4  -5  -5   22.76    2.83
   4   5   5   23.19    2.66
  -4  -5  -5   18.93    2.52
  -4  -5  -5   26.77    3.11
   4   5   6   29.35    2.98
  -4  -5  -6   34.75    3.54
   4   5   6   37.64    3.68
  -4  -5  -6   38.69    3.80
  -4  -5  -6   30.49    3.03
   4   5   6   37.81    3.75
  -4  -5  -6   35.47    3.30
  -4  -5  -6   33.08    3.51
   4   5   6   31.25    3.26
  -4  -5  -6   35.85    3.55
   4   5   7    9.99    1.74
   4   5   7    4.91    1.50
  -4  -5  -7    8.16    1.52
  -4  -5  -7    1.77    1.12
   4   5   7    5.88    1.51
  -4  -5  -7    8.52    1.69
  -4  -5  -7    5.23    1.55
  -4  -5  -7    6.57    1.70
   4   5   7    7.04    1.72
   4   5   8    3.82    1.11
   4   5   8    5.05    1.57
   4   5   8    1.24    1.02
  -4  -5  -8    5.80    1.75
  -4  -5  -8    5.42    1.61
   4   5   8    4.48    1.51
   4   5   9    1.59    0.88
  -4  -5  -9    1.18    0.96
  -4  -5  -9    3.41    1.27
   4   5   9    0.25    0.82
   4   5  10   58.94    3.96
  -4  -5 -10   52.51    4.09
  -4  -5 -10   53.05    3.87
   4   5  10   54.17    4.17
  -4  -5 -11    7.51    1.19
  -4  -5 -11   11.74    1.63
   4   5  11    8.17    1.41
   4   5  12   47.60    2.56
  -4  -6   5  182.91    6.68
  -4  -6   5  181.93    6.84
  -4  -6   5  193.86    7.02
  -4  -6   4    4.14    1.04
  -4  -6   4    4.66    1.02
  -4  -6   4    4.68    1.11
  -4  -6   4    4.53    1.17
  -4  -6   4    3.64    1.10
  -4  -6   3    6.30    1.46
  -4  -6   3    4.06    0.97
  -4  -6   3    6.06    1.32
  -4  -6   3    5.74    1.50
  -4  -6   3    6.41    1.50
  -4  -6   2  115.79    6.46
  -4  -6   2  106.93    5.71
  -4  -6   2  113.37    6.34
  -4  -6   2  111.94    6.44
  -4  -6   2  110.48    6.30
  -4  -6   1   19.43    2.63
  -4  -6   1   17.76    2.30
  -4  -6   1   16.94    2.49
  -4  -6   1   16.19    2.40
   4   6  -1   15.94    2.66
  -4  -6   1   18.60    2.63
  -4  -6   1   20.22    2.65
  -4  -6   1   20.18    2.59
  -4  -6   1   11.40    1.99
  -4  -6   0   23.40    2.78
  -4  -6   0   22.75    3.06
  -4  -6   0   22.23    2.91
  -4  -6   0   21.01    2.75
  -4  -6   0   23.53    2.85
  -4  -6   0   19.33    2.54
   4   6   0   19.17    2.91
  -4  -6   0   21.85    2.71
  -4  -6   0   23.99    2.87
  -4  -6   0   21.30    2.58
  -4  -6   0   17.92    2.60
  -4  -6  -1   58.69    4.98
  -4  -6  -1   51.93    4.30
   4   6   1   45.23    4.00
  -4  -6  -1   49.12    4.22
  -4  -6  -1   45.53    4.13
  -4  -6  -1   56.84    4.37
  -4  -6  -1   54.38    4.66
  -4  -6  -1   56.17    4.46
  -4  -6  -1   56.18    4.17
  -4  -6  -1   47.92    4.50
  -4  -6  -1   53.10    3.91
   4   6   2   18.97    2.77
  -4  -6  -2   17.90    2.89
  -4  -6  -2   14.06    2.38
   4   6   2   16.74    2.63
  -4  -6  -2   16.53    2.47
  -4  -6  -2   15.96    2.54
  -4  -6  -2   19.94    2.82
  -4  -6  -2   14.58    2.27
  -4  -6  -2   19.13    2.41
  -4  -6  -2   16.15    2.74
   4   6   3   53.20    4.49
  -4  -6  -3   58.67    5.10
  -4  -6  -3   54.86    4.48
   4   6   3   51.12    4.57
  -4  -6  -3   58.21    4.49
  -4  -6  -3   47.47    4.33
  -4  -6  -3   54.86    4.59
  -4  -6  -3   56.93    4.20
  -4  -6  -3   47.55    4.54
   4   6   4   29.75    3.38
  -4  -6  -4   32.29    3.82
  -4  -6  -4   36.91    3.60
  -4  -6  -4   36.01    3.58
  -4  -6  -4   33.46    3.31
   4   6   4   31.26    3.62
  -4  -6  -4   36.11    3.72
  -4  -6  -4   39.00    3.90
  -4  -6  -4   42.31    3.55
  -4  -6  -4   36.70    3.97
   4   6   5  417.65   14.81
  -4  -6  -5  418.57   15.66
  -4  -6  -5  406.63   14.93
  -4  -6  -5  408.51   14.52
   4   6   5  424.67   15.83
  -4  -6  -5  406.64   14.10
  -4  -6  -5  419.90   14.84
   4   6   5  422.29   14.23
  -4  -6  -5  438.53   15.23
  -4  -6  -5  413.97   15.62
   4   6   6    0.19    0.80
  -4  -6  -6    0.52    0.80
  -4  -6  -6    0.74    0.91
   4   6   6    0.24    1.14
  -4  -6  -6   -0.57    0.81
  -4  -6  -6   -0.11    1.10
  -4  -6  -6    0.66    1.10
   4   6   6   -0.37    0.91
  -4  -6  -6   -0.64    0.81
  -4  -6  -6   -0.19    1.00
   4   6   7   20.71    2.67
   4   6   7   24.49    2.81
  -4  -6  -7   21.07    2.42
  -4  -6  -7   20.12    2.54
   4   6   7   19.48    2.86
  -4  -6  -7   23.79    2.98
  -4  -6  -7   23.48    3.11
   4   6   7   22.96    2.90
   4   6   8   -0.72    0.75
   4   6   8    1.26    1.02
  -4  -6  -8    0.40    0.87
  -4  -6  -8    1.27    1.11
   4   6   8   -0.17    0.81
   4   6   9   55.20    3.72
   4   6   9   58.31    3.84
  -4  -6  -9   66.01    4.70
  -4  -6  -9   56.34    4.15
   4   6   9   55.54    4.27
  -4  -6 -10    4.94    1.10
  -4  -6 -10    5.28    1.28
   4   6  10    7.30    1.44
  -4  -6 -11   36.81    2.62
   4   6  11   36.89    2.59
  -4  -7   4   31.22    1.99
  -4  -7   4   32.86    2.03
  -4  -7   4   31.98    1.98
  -4  -7   3   95.03    4.48
  -4  -7   3   90.43    4.38
  -4  -7   3   94.53    4.41
   4   7  -2  134.24    6.65
  -4  -7   2  147.93    6.52
  -4  -7   2  132.97    5.72
  -4  -7   2  130.16    6.14
  -4  -7   2  142.46    6.33
  -4  -7   2  144.24    6.27
   4   7  -1   14.08    2.11
  -4  -7   1   15.13    2.06
  -4  -7   1   16.74    2.19
  -4  -7   1   14.60    1.90
  -4  -7   1   16.17    2.18
  -4  -7   1   12.99    1.89
  -4  -7   1   17.94    2.13
   4   7   0   -1.22    1.17
  -4  -7   0    0.36    0.71
  -4  -7   0    0.41    0.82
  -4  -7   0   -0.07    0.93
  -4  -7   0    0.19    0.77
  -4  -7   0   -0.63    0.72
  -4  -7   0    1.16    0.79
   4   7   1   14.69    2.50
  -4  -7  -1   15.65    2.55
  -4  -7  -1   13.15    2.15
  -4  -7  -1   15.95    2.35
  -4  -7  -1   19.79    2.55
  -4  -7  -1   18.28    2.41
  -4  -7  -1   14.52    2.28
  -4  -7  -1   18.37    2.20
  -4  -7  -1   18.56    2.18
   4   7   2    9.70    2.00
  -4  -7  -2    9.72    2.05
  -4  -7  -2   12.13    2.44
  -4  -7  -2   11.58    2.04
  -4  -7  -2   12.18    2.15
  -4  -7  -2   12.19    2.07
  -4  -7  -2   12.25    2.22
  -4  -7  -2   11.35    1.92
   4   7   3    1.63    1.10
  -4  -7  -3    1.47    1.07
  -4  -7  -3    1.62    1.36
  -4  -7  -3    1.01    0.88
  -4  -7  -3    0.90    1.07
  -4  -7  -3    0.52    0.94
  -4  -7  -3    1.23    0.96
  -4  -7  -3    0.86    0.95
  -4  -7  -3   -0.26    1.04
   4   7   4   30.42    3.35
  -4  -7  -4   28.43    3.17
  -4  -7  -4   28.67    3.52
  -4  -7  -4   30.82    3.00
  -4  -7  -4   37.20    3.77
  -4  -7  -4   28.89    3.22
  -4  -7  -4   36.26    3.25
  -4  -7  -4   30.01    3.39
   4   7   5    6.41    1.72
  -4  -7  -5    7.26    1.51
  -4  -7  -5    4.40    1.51
  -4  -7  -5    3.73    1.31
  -4  -7  -5    3.76    1.10
  -4  -7  -5    3.29    1.36
  -4  -7  -5    3.17    1.21
   4   7   6   14.28    2.16
   4   7   6   14.08    1.98
  -4  -7  -6   13.00    1.80
  -4  -7  -6   12.51    2.13
  -4  -7  -6   11.34    2.15
   4   7   6   13.31    2.04
  -4  -7  -6   13.34    2.19
  -4  -7  -6   12.54    2.09
   4   7   7   23.56    2.63
  -4  -7  -7   20.89    2.54
  -4  -7  -7   23.09    2.78
   4   7   7   18.80    2.29
  -4  -7  -7   20.66    2.58
   4   7   8   66.36    4.27
  -4  -7  -8   70.89    4.76
   4   7   8   63.57    4.23
  -4  -7  -8   71.18    4.46
   4   7   9   24.77    2.27
  -4  -7  -9   24.50    2.53
   4   7   9   20.68    2.18
  -4  -7  -9   23.65    2.22
  -4  -7 -10   13.59    1.62
   4   7  10   10.34    1.32
  -4  -7 -10   10.92    1.21
  -4  -8   1    2.29    0.68
   4   8   0  111.03    5.31
  -4  -8   0  103.40    4.85
  -4  -8   0  112.88    4.56
  -4  -8   0  104.96    4.87
   4   8   1    1.96    0.99
  -4  -8  -1    2.55    0.89
  -4  -8  -1    0.91    0.66
  -4  -8  -1    1.43    0.73
  -4  -8  -1    2.50    0.92
   4   8   2   82.92    4.98
  -4  -8  -2   80.18    5.06
  -4  -8  -2   79.52    4.36
  -4  -8  -2   77.34    4.43
  -4  -8  -2   82.77    4.59
  -4  -8  -2   85.20    4.81
   4   8   3   24.62    2.68
  -4  -8  -3   30.38    3.17
  -4  -8  -3   25.84    2.29
  -4  -8  -3   29.93    2.92
  -4  -8  -3   29.81    2.65
  -4  -8  -3   32.18    2.97
  -4  -8  -3   27.71    2.60
   4   8   4    2.76    0.97
  -4  -8  -4    3.30    1.15
  -4  -8  -4    1.73    0.64
  -4  -8  -4    0.42    0.88
  -4  -8  -4    4.23    1.18
  -4  -8  -4    1.93    0.96
  -4  -8  -4    2.35    0.71
   4   8   5   57.88    4.08
  -4  -8  -5   58.95    4.39
  -4  -8  -5   54.17    3.97
  -4  -8  -5   61.14    3.63
  -4  -8  -5   57.72    3.75
  -4  -8  -5   57.99    4.03
   4   8   6   52.31    3.69
  -4  -8  -6   59.87    4.16
  -4  -8  -6   52.84    3.45
  -4  -8  -6   50.08    3.63
   4   8   7   19.00    2.08
  -4  -8  -7   19.40    1.84
  -4  -8  -7   18.05    2.05
  -4  -8  -8   39.02    2.26
  -4  -8  -8   35.89    2.62
  -4  -8  -9    1.34    0.60
   4   9   3    0.28    0.53
   4   9   4    1.70    0.61
  -4  -9  -4    2.40    0.64
   4   9   5    0.93    0.52
  -4  -9  -5    0.37    0.40
  -4  -9  -6    2.67    0.58
  -5   4   5   41.01    2.51
  -5   4   5   38.33    2.37
  -5   4   4   10.66    1.31
  -5   4   4   11.25    1.32
  -5   4   4   10.95    1.37
  -5   4   4   11.55    1.47
  -5   4   3   81.15    4.11
  -5   4   3   86.87    4.43
  -5   4   3   77.26    3.86
  -5   4   3   78.00    4.16
  -5   4   3   75.38    3.45
  -5   4   2   40.91    2.96
  -5   4   2   44.16    3.20
  -5   4   2   41.76    2.89
   5  -4  -2   40.81    3.00
  -5   4   2   41.23    2.98
  -5   4   1   15.05    1.78
  -5   4   1   16.60    1.88
  -5   4   1   13.18    1.81
  -5   4   1   12.30    1.41
   5  -4  -1   17.83    1.92
  -5   4   0   14.22    1.59
  -5   4   0   15.24    1.74
  -5   4   0   14.52    1.79
  -5   4   0   11.93    1.42
  -5   4  -1    6.93    1.00
  -5   4  -1    9.37    1.30
  -5   4  -1    7.37    1.15
  -5   4  -1    8.85    1.21
  -5   4  -2   13.62    1.34
  -5   4  -2   14.79    1.41
  -5   3   7  144.67    5.56
  -5   3   7  153.85    5.76
  -5   3   7  142.43    5.41
  -5   3   6   40.41    2.93
  -5   3   6   33.25    2.55
  -5   3   6   35.50    2.84
  -5   3   5   14.48    1.99
  -5   3   5   15.26    1.71
  -5   3   5   16.54    2.08
  -5   3   5   18.87    2.03
  -5   3   4   24.93    2.36
  -5   3   4   17.25    2.18
  -5   3   4   23.43    2.41
  -5   3   4   23.31    2.52
  -5   3   4   25.17    2.72
   5  -3  -4   20.44    2.26
  -5   3   4   22.06    2.24
  -5   3   3   21.86    2.51
  -5   3   3   20.12    2.42
  -5   3   3   23.42    2.79
  -5   3   3   24.08    2.78
  -5   3   3   23.16    2.24
  -5   3   2    5.23    1.25
  -5   3   2    5.61    1.51
  -5   3   2    4.79    1.46
  -5   3   2    5.35    1.43
  -5   3   1   31.78    3.15
  -5   3   1   23.35    2.97
  -5   3   1   24.57    2.88
  -5   3   0    5.78    1.43
  -5   3   0    4.21    1.24
  -5   3   0    5.91    1.52
  -5   3   0    5.00    1.42
  -5   3  -1    0.12    0.74
  -5   3  -1    0.46    0.84
  -5   3  -1    0.21    1.14
  -5   3  -2   17.37    1.99
  -5   3  -2   23.68    2.50
  -5   3  -2   18.94    2.32
  -5   3  -2   21.10    2.38
   5  -3   2   20.80    2.20
  -5   3  -3  173.32    6.15
  -5   3  -3  170.59    6.56
  -5   3  -3  174.15    7.18
  -5   3  -3  185.58    7.39
  -5   3  -3  173.51    6.70
  -5   3  -4   52.16    3.05
  -5   3  -4   48.94    3.15
  -5   3  -4   49.73    2.90
  -5   3  -5   19.83    1.57
  -5   2   8   39.53    2.55
  -5   2   8   40.48    2.47
  -5   2   8   41.67    2.57
  -5   2   7   11.19    1.64
  -5   2   7   12.46    1.70
  -5   2   7   10.85    1.61
  -5   2   7   10.30    1.39
  -5   2   6    0.48    1.09
  -5   2   6    2.03    1.09
  -5   2   6    1.87    1.04
  -5   2   6    2.04    0.89
  -5   2   5 1069.96   27.77
  -5   2   5 1085.59   28.22
  -5   2   5 1099.16   29.78
  -5   2   5 1038.26   29.66
  -5   2   5 1015.38   28.98
  -5   2   5 1058.81   28.75
  -5   2   4   34.73    2.99
  -5   2   4   36.98    3.27
  -5   2   4   34.88    3.39
  -5   2   4   34.50    3.61
  -5   2   4   37.73    3.48
  -5   2   4   42.20    3.94
  -5   2   4   40.55    3.57
  -5   2   3   60.11    4.22
  -5   2   3   59.97    4.55
  -5   2   3   59.86    4.78
  -5   2   3   62.33    4.82
  -5   2   3   60.94    4.48
  -5   2   3   60.98    4.79
  -5   2   3   66.21    4.69
  -5   2   2  181.32    8.30
  -5   2   2  175.03    8.55
  -5   2   2  174.13    9.02
  -5   2   2  189.49    9.02
  -5   2   2  175.20    8.74
  -5   2   2  178.16    7.92
  -5   2   2  183.30    8.70
   5  -2  -2  180.38    9.31
  -5   2   2  168.72    8.21
   5  -2  -2  150.93    8.32
  -5   2   1   39.75    3.89
  -5   2   1   49.87    4.63
  -5   2   1   43.39    4.07
  -5   2   1   45.09    4.17
  -5   2   1   51.41    3.77
  -5   2   1   44.84    3.86
   5  -2  -1   42.62    4.25
  -5   2   0   24.77    3.05
  -5   2   0   21.93    3.06
  -5   2   0   22.58    2.88
  -5   2   0   20.50    2.88
  -5   2   0   20.70    2.54
   5  -2   0   26.99    3.40
  -5   2  -1   18.00    2.61
  -5   2  -1   14.31    2.40
  -5   2  -1   15.02    2.58
  -5   2  -1   17.77    2.60
  -5   2  -1   16.26    2.58
  -5   2  -1   17.85    2.45
   5  -2   1   20.86    2.97
  -5   2  -2   -0.50    0.98
  -5   2  -2    1.05    1.15
  -5   2  -2   -0.17    1.06
  -5   2  -2   -0.01    0.80
  -5   2  -3   83.95    5.54
  -5   2  -3   90.57    5.16
  -5   2  -3   92.48    5.57
  -5   2  -3   89.45    5.69
   5  -2   3   88.71    5.06
  -5   2  -3   89.09    5.60
  -5   2  -4  111.22    5.43
  -5   2  -4  119.49    6.31
   5  -2   4  115.62    5.80
  -5   2  -4  115.11    6.22
  -5   2  -4  112.84    6.34
  -5   2  -5  107.63    5.31
   5  -2   5  101.81    5.12
  -5   2  -5   98.17    5.32
  -5   2  -5  104.58    5.67
   5  -2   6  206.18    7.27
  -5   2  -6  205.46    7.56
  -5   2  -6  221.31    8.05
  -5   2  -7    3.27    0.75
  -5   1   8   14.88    1.72
  -5   1   8   16.24    1.65
  -5   1   8   18.30    1.84
  -5   1   8   17.01    1.72
  -5   1   8   17.07    1.79
  -5   1   7   28.12    2.77
  -5   1   7   28.92    2.82
  -5   1   7   30.96    2.87
  -5   1   7   26.54    2.65
  -5   1   7   29.61    2.78
  -5   1   6    0.91    0.96
  -5   1   6    1.42    0.91
  -5   1   6    2.05    1.06
  -5   1   6    0.14    0.84
  -5   1   6    1.09    0.86
  -5   1   5  360.33   11.73
  -5   1   5  349.91   13.25
  -5   1   5  359.68   13.73
  -5   1   5  345.77   13.26
  -5   1   5  337.19   13.15
  -5   1   5  347.38   13.18
  -5   1   4   23.43    3.13
  -5   1   4   26.72    2.84
  -5   1   4   27.10    3.04
  -5   1   4   30.12    3.38
  -5   1   4   25.86    2.93
  -5   1   4   24.13    3.14
  -5   1   4   29.75    3.38
   5  -1  -4   27.79    3.59
  -5   1   4   29.99    3.38
   5  -1  -4   23.48    3.16
  -5   1   3  119.48    6.59
  -5   1   3  108.94    6.73
  -5   1   3  100.13    6.46
  -5   1   3  106.70    6.43
  -5   1   3  114.11    5.88
  -5   1   3  111.20    6.59
  -5   1   3  109.60    6.88
  -5   1   3  114.93    6.91
   5  -1  -3  106.34    7.11
  -5   1   3  110.93    6.69
   5  -1  -3   97.97    6.46
  -5   1   2   66.97    4.47
  -5   1   2   60.49    4.83
  -5   1   2   60.51    4.73
  -5   1   2   53.59    4.75
  -5   1   2   63.58    4.95
  -5   1   2   70.57    4.65
  -5   1   2   52.70    4.51
  -5   1   2   68.43    4.85
  -5   1   2   50.24    4.52
   5  -1  -2   56.89    5.07
  -5   1   2   62.19    4.89
   5  -1  -2   56.04    4.62
  -5   1   1   69.05    5.29
  -5   1   1   70.01    5.17
  -5   1   1   72.58    5.64
  -5   1   1   69.48    5.17
  -5   1   1   71.89    4.94
  -5   1   1   66.09    4.99
  -5   1   1   73.29    4.92
  -5   1   1   69.06    5.20
   5  -1  -1   74.17    5.71
  -5   1   1   65.63    4.97
   5  -1  -1   63.62    4.75
  -5   1   0  250.98   11.03
  -5   1   0  245.31   10.47
  -5   1   0  246.63   10.76
  -5   1   0  242.97   11.32
  -5   1   0  260.97   10.92
  -5   1   0  231.22   10.66
  -5   1   0  245.68   10.24
   5  -1   0  261.97   11.52
  -5   1   0  245.91   10.64
  -5   1  -1   55.63    4.73
  -5   1  -1   60.95    4.79
  -5   1  -1   58.93    5.04
  -5   1  -1   61.65    4.83
  -5   1  -1   55.28    4.51
  -5   1  -1   59.23    4.77
  -5   1  -1   67.41    5.08
   5  -1   1   68.47    5.40
  -5   1  -2    3.63    1.39
  -5   1  -2    8.14    1.96
  -5   1  -2    5.16    1.65
  -5   1  -2    4.03    1.42
  -5   1  -2    6.07    1.50
  -5   1  -2    5.42    1.79
   5  -1   2    4.60    1.70
  -5   1  -3  122.01    6.69
  -5   1  -3  128.47    7.27
  -5   1  -3  119.50    7.11
  -5   1  -3  133.53    7.23
  -5   1  -3  116.64    6.71
  -5   1  -3  121.70    7.30
   5  -1   3  122.62    7.50
  -5   1  -4  244.33    9.55
  -5   1  -4  253.50   10.23
  -5   1  -4  232.26   10.47
   5  -1   4  256.85   10.21
  -5   1  -4  247.28   10.61
  -5   1  -4  237.11    9.76
  -5   1  -4  246.22   11.06
   5  -1   4  253.11   11.40
  -5   1  -5    0.01    0.90
  -5   1  -5    0.72    0.96
   5  -1   5    0.43    0.79
  -5   1  -6   19.61    2.57
  -5   1  -6   20.55    2.37
   5  -1   6   23.13    2.58
  -5   1  -6   24.00    2.67
  -5   1  -6   21.28    2.45
   5  -1   7   33.23    2.79
  -5   1  -7   34.89    2.87
  -5   1  -7   38.47    3.25
  -5   1  -7   41.89    3.12
   5  -1   8   24.92    1.93
  -5   1  -8   27.85    2.09
  -5   1  -8   30.27    2.35
  -5   0   9    0.63    0.51
  -5   0   8   65.60    3.66
  -5   0   8   65.97    3.59
  -5   0   8   63.42    3.75
  -5   0   8   65.08    3.91
  -5   0   7   13.12    1.90
  -5   0   7   11.91    1.81
  -5   0   7   13.76    1.99
  -5   0   7   11.55    1.92
  -5   0   7   11.47    1.80
  -5   0   7   15.13    2.18
  -5   0   6    1.83    1.22
  -5   0   6    2.15    1.07
  -5   0   6    2.54    1.26
  -5   0   6    0.65    0.72
  -5   0   6    0.45    0.87
  -5   0   6    2.39    1.06
  -5   0   6    2.38    1.33
  -5   0   5   13.09    2.32
  -5   0   5   13.03    2.18
  -5   0   5    8.98    1.55
  -5   0   5    9.83    2.01
  -5   0   5   12.47    1.96
  -5   0   5    8.32    1.90
  -5   0   5    9.79    1.98
  -5   0   5    8.62    1.94
   5   0  -5   11.60    2.48
  -5   0   4  827.58   24.51
  -5   0   4  935.88   24.90
  -5   0   4  896.63   25.91
  -5   0   4  903.96   24.98
  -5   0   4  891.00   24.82
  -5   0   4  915.06   26.92
  -5   0   4  868.48   26.18
  -5   0   4  852.77   25.17
  -5   0   4  855.38   26.09
  -5   0   4  867.29   25.81
  -5   0   4  857.10   26.29
   5   0  -4  833.84   26.06
  -5   0   3  879.40   25.84
  -5   0   3  928.24   25.96
  -5   0   3  926.77   26.55
  -5   0   3  948.24   26.61
  -5   0   3  882.27   25.77
  -5   0   3  857.98   25.43
  -5   0   3  935.77   27.52
  -5   0   3  898.11   26.67
  -5   0   3  944.34   26.27
  -5   0   3  906.98   26.78
  -5   0   3  869.55   26.06
  -5   0   3  937.54   27.27
   5   0  -3  838.55   26.23
  -5   0   2    3.37    1.40
  -5   0   2    6.89    1.73
  -5   0   2    3.80    1.29
  -5   0   2    4.20    1.58
  -5   0   2    4.29    1.29
  -5   0   2    7.09    1.74
  -5   0   2    4.46    1.29
  -5   0   2    6.17    1.55
  -5   0   2    4.98    1.50
  -5   0   2    3.15    1.15
   5   0  -2    1.19    1.03
  -5   0   2    2.90    1.05
  -5   0   2    2.66    1.25
   5   0  -2    4.29    1.49
  -5   0   1   16.47    2.61
  -5   0   1   18.35    2.46
  -5   0   1   20.15    2.70
  -5   0   1   15.46    2.19
  -5   0   1   16.87    2.66
  -5   0   1   19.05    2.54
  -5   0   1   19.26    2.67
  -5   0   1   17.16    2.49
  -5   0   1   18.14    2.49
  -5   0   1   18.22    2.50
  -5   0   1   16.39    2.54
   5   0  -1   12.79    2.30
  -5   0   1   18.43    2.62
   5   0  -1   17.61    2.32
  -5   0   0   19.07    2.55
  -5   0   0   16.54    2.44
  -5   0   0   19.72    2.68
  -5   0   0   16.82    2.37
  -5   0   0   19.04    2.81
  -5   0   0   18.51    2.39
  -5   0   0   16.82    2.44
  -5   0   0   21.01    2.83
  -5   0   0   16.72    2.23
   5   0   0   18.92    2.74
  -5   0   0   19.30    2.64
  -5   0  -1   12.27    1.96
  -5   0  -1    9.76    2.03
  -5   0  -1   11.79    2.17
  -5   0  -1   14.33    2.29
  -5   0  -1   15.22    2.66
  -5   0  -1   14.76    2.04
  -5   0  -1   15.11    2.21
  -5   0  -1   13.91    2.25
  -5   0  -1   13.85    2.28
   5   0   1   15.28    2.55
  -5   0  -1   12.07    2.17
  -5   0  -2  117.46    6.81
  -5   0  -2  121.90    6.81
  -5   0  -2  121.43    7.26
  -5   0  -2  127.82    7.06
  -5   0  -2  121.30    6.53
  -5   0  -2  121.91    6.56
  -5   0  -2  113.53    6.69
  -5   0  -2  127.32    7.31
   5   0   2  112.50    6.96
  -5   0  -3   47.66    4.10
  -5   0  -3   37.57    3.64
  -5   0  -3   39.95    3.99
  -5   0  -3   50.12    4.35
  -5   0  -3   40.10    3.76
  -5   0  -3   39.25    3.67
  -5   0  -3   44.27    4.34
   5   0   3   43.10    4.19
  -5   0  -4  198.74    8.77
  -5   0  -4  201.08    8.64
  -5   0  -4  194.90    9.02
  -5   0  -4  190.76    9.30
  -5   0  -4  197.45    9.19
  -5   0  -4  162.90    8.14
  -5   0  -4  189.98    8.77
  -5   0  -4  176.98    9.31
   5   0   4  192.00    9.59
   5   0   5  583.91   17.76
  -5   0  -5  563.27   18.99
   5   0   5  606.81   18.84
  -5   0  -5  587.47   19.14
  -5   0  -5  575.67   19.00
   5   0   5  551.40   19.60
   5   0   6  194.94    8.32
  -5   0  -6  190.57    8.85
   5   0   6  184.56    8.75
  -5   0  -6  193.11    9.04
  -5   0  -6  191.26    9.18
   5   0   7   28.85    2.78
   5   0   7   33.22    3.21
  -5   0  -7   29.86    3.05
  -5   0  -7   33.39    3.44
  -5   0  -7   26.04    3.09
   5   0   8   51.85    3.52
   5   0   8   52.91    3.74
  -5   0  -8   56.55    4.04
  -5   0  -8   52.80    3.85
   5   0   9   40.45    2.61
  -5   0  -9   42.89    2.87
  -5   0  -9   36.78    2.51
  -5  -1   9   27.50    1.75
  -5  -1   9   29.47    1.89
  -5  -1   8    6.74    1.24
  -5  -1   8    5.02    1.07
  -5  -1   8    5.70    1.17
  -5  -1   7    4.47    1.13
  -5  -1   7    5.08    1.19
  -5  -1   7    5.16    1.10
  -5  -1   7    5.78    1.44
  -5  -1   7    6.84    1.40
  -5  -1   7    4.21    1.20
  -5  -1   6    9.30    1.82
  -5  -1   6    6.60    1.36
  -5  -1   6   11.98    2.04
  -5  -1   6    8.51    1.60
  -5  -1   6    9.11    1.91
  -5  -1   6   10.46    2.01
  -5  -1   6    6.53    1.70
  -5  -1   5  116.33    6.46
  -5  -1   5  127.86    7.31
  -5  -1   5  125.72    6.60
  -5  -1   5  128.75    7.19
  -5  -1   5  119.85    6.58
  -5  -1   5  108.32    6.82
  -5  -1   5  120.15    6.92
  -5  -1   5  122.43    7.26
   5   1  -5  117.05    7.23
  -5  -1   4  706.45   20.27
  -5  -1   4  725.26   20.27
  -5  -1   4  698.61   21.09
  -5  -1   4  727.40   21.44
  -5  -1   4  687.11   22.28
  -5  -1   4  691.48   22.04
  -5  -1   4  664.27   21.05
  -5  -1   4  725.26   22.29
  -5  -1   4  694.80   21.60
  -5  -1   4  655.62   21.94
   5   1  -4  664.91   21.74
  -5  -1   3    2.28    1.30
  -5  -1   3    4.27    1.37
  -5  -1   3    3.64    1.07
  -5  -1   3    5.04    1.39
  -5  -1   3    6.69    1.57
  -5  -1   3    5.42    1.65
  -5  -1   3    4.40    1.47
  -5  -1   3    6.09    1.62
  -5  -1   3    4.75    1.61
  -5  -1   3    5.35    1.42
  -5  -1   3    4.99    1.66
   5   1  -3    3.34    1.16
  -5  -1   2   41.74    3.76
  -5  -1   2   48.53    3.95
  -5  -1   2   45.08    4.06
  -5  -1   2   41.97    3.51
  -5  -1   2   47.84    3.92
  -5  -1   2   44.52    3.93
  -5  -1   2   37.15    3.81
  -5  -1   2   44.49    4.06
  -5  -1   2   47.38    4.00
  -5  -1   2   41.05    3.85
  -5  -1   2   45.32    3.77
  -5  -1   2   39.84    3.86
   5   1  -2   42.00    3.62
  -5  -1   1    2.03    1.22
  -5  -1   1    2.28    1.04
  -5  -1   1    3.48    1.30
  -5  -1   1    5.35    1.77
  -5  -1   1    5.01    1.56
  -5  -1   1    1.98    1.10
  -5  -1   1    1.61    1.18
  -5  -1   1    1.21    0.80
  -5  -1   1    2.44    1.07
  -5  -1   1    3.49    1.30
   5   1  -1    2.94    1.39
  -5  -1   1    2.92    1.13
  -5  -1   1    2.74    1.27
   5   1  -1    3.01    1.09
  -5  -1   0   43.68    3.91
  -5  -1   0   46.84    3.94
  -5  -1   0   38.72    3.26
  -5  -1   0   36.62    3.79
  -5  -1   0   41.14    3.34
  -5  -1   0   42.53    3.35
  -5  -1   0   38.87    3.63
  -5  -1   0   34.19    3.55
  -5  -1   0   38.64    3.71
  -5  -1   0   43.82    3.75
  -5  -1   0   42.23    3.57
  -5  -1   0   42.23    3.64
   5   1   0   45.47    3.97
  -5  -1   0   45.17    3.40
  -5  -1   0   43.82    3.82
  -5  -1  -1    5.17    1.43
  -5  -1  -1    5.88    1.57
  -5  -1  -1    6.17    1.65
  -5  -1  -1    6.46    1.50
  -5  -1  -1    5.24    1.34
  -5  -1  -1    5.38    1.38
  -5  -1  -1    3.81    1.24
  -5  -1  -1    3.13    1.19
  -5  -1  -1    4.14    0.99
  -5  -1  -1    5.57    1.39
   5   1   1    4.70    1.41
  -5  -1  -1    5.78    1.38
  -5  -1  -2   -0.64    1.22
   5   1   2   -0.34    0.84
  -5  -1  -2    1.00    1.03
  -5  -1  -2   -0.33    0.92
  -5  -1  -2    0.57    0.78
  -5  -1  -2    1.26    1.22
  -5  -1  -2   -0.08    0.67
  -5  -1  -2   -0.72    0.96
  -5  -1  -2   -0.06    0.76
  -5  -1  -2    0.38    0.94
  -5  -1  -2   -0.26    0.91
   5   1   2   -0.17    0.76
   5   1   3   86.79    5.03
  -5  -1  -3   89.43    5.66
  -5  -1  -3   94.44    5.74
  -5  -1  -3   83.03    5.83
  -5  -1  -3   91.95    5.80
  -5  -1  -3   91.65    5.50
  -5  -1  -3   90.81    5.65
  -5  -1  -3   95.03    5.49
  -5  -1  -3   91.63    6.09
   5   1   3   87.50    5.78
   5   1   4  172.83    7.93
  -5  -1  -4  183.39    8.40
  -5  -1  -4  190.58    8.42
  -5  -1  -4  180.23    8.83
  -5  -1  -4  194.58    8.80
  -5  -1  -4  171.48    8.11
  -5  -1  -4  177.71    8.51
  -5  -1  -4  183.00    9.29
   5   1   4  164.51    8.59
   5   1   5  333.02   12.43
  -5  -1  -5  336.55   12.09
  -5  -1  -5  364.16   12.23
  -5  -1  -5  333.33   13.18
   5   1   5  347.56   12.72
  -5  -1  -5  343.14   13.10
  -5  -1  -5  335.63   12.09
  -5  -1  -5  342.20   13.37
  -5  -1  -5  324.82   13.47
   5   1   5  318.42   13.26
   5   1   6   34.66    3.43
  -5  -1  -6   27.26    3.24
  -5  -1  -6   40.08    3.89
   5   1   6   28.32    3.23
  -5  -1  -6   39.89    4.03
  -5  -1  -6   30.88    3.60
   5   1   6   29.41    3.54
   5   1   7   46.00    3.97
   5   1   7   39.12    3.78
  -5  -1  -7   42.92    3.92
  -5  -1  -7   42.86    4.15
  -5  -1  -7   40.05    3.97
   5   1   8    3.11    1.18
   5   1   8    2.36    1.04
  -5  -1  -8    3.19    1.17
  -5  -1  -8    1.38    1.08
   5   1   9    1.00    0.68
   5   1   9    0.78    0.64
  -5  -1  -9    1.63    0.78
  -5  -1  -9    1.24    0.99
   5   1  10    1.56    0.65
  -5  -1 -10    0.85    0.58
  -5  -2   8   35.77    2.60
  -5  -2   8   32.55    2.41
  -5  -2   8   33.59    2.46
  -5  -2   7   18.51    1.93
  -5  -2   7   22.45    2.58
  -5  -2   7   22.97    2.45
  -5  -2   7   21.23    2.37
  -5  -2   6   39.72    3.35
  -5  -2   6   39.09    3.35
  -5  -2   6   42.88    3.84
  -5  -2   6   42.00    3.65
  -5  -2   6   31.58    3.33
   5   2  -5    9.35    2.17
  -5  -2   5   10.08    2.01
  -5  -2   5   10.85    1.96
  -5  -2   5    9.91    1.93
  -5  -2   5    8.31    1.99
  -5  -2   5   10.28    2.02
  -5  -2   5   10.73    2.09
  -5  -2   4   -0.94    1.31
   5   2  -4    3.50    1.33
  -5  -2   4    1.49    1.04
  -5  -2   4    0.64    1.18
  -5  -2   4    0.82    1.09
  -5  -2   4    0.25    1.03
  -5  -2   4   -0.47    0.85
  -5  -2   4   -0.89    1.24
   5   2  -3  246.02    9.68
  -5  -2   3  252.52    9.91
  -5  -2   3  251.60    9.77
  -5  -2   3  257.04    9.84
  -5  -2   3  248.75   11.10
  -5  -2   3  250.50   10.67
  -5  -2   3  245.39   10.78
  -5  -2   3  242.28   10.40
  -5  -2   3  249.58   10.73
  -5  -2   3  245.44   10.38
  -5  -2   3  258.41   10.92
   5   2  -3  224.14   10.05
  -5  -2   2 2556.00   63.57
  -5  -2   2 2677.47   63.60
  -5  -2   2 2530.32   63.26
  -5  -2   2 2517.65   64.91
  -5  -2   2 2665.48   64.52
  -5  -2   2 2647.91   64.63
  -5  -2   2 2547.61   63.82
  -5  -2   2 2618.21   64.14
  -5  -2   2 2653.59   63.59
  -5  -2   2 2716.72   64.58
  -5  -2   2 2565.38   63.86
   5   2  -2 2511.45   63.05
  -5  -2   1   57.36    4.45
  -5  -2   1   57.78    4.40
  -5  -2   1   66.31    4.23
  -5  -2   1   61.46    4.45
  -5  -2   1   65.07    5.01
  -5  -2   1   61.94    4.74
  -5  -2   1   61.87    4.72
  -5  -2   1   61.83    4.46
  -5  -2   1   66.30    4.59
   5   2  -1   55.44    4.29
  -5  -2   1   65.80    4.33
  -5  -2   1   68.19    4.79
  -5  -2   1   60.61    4.57
   5   2  -1   60.01    3.95
  -5  -2   0  193.52    8.81
  -5  -2   0  193.63    8.70
  -5  -2   0  198.36    8.31
  -5  -2   0  186.26    8.51
  -5  -2   0  175.06    8.72
  -5  -2   0  182.09    8.68
  -5  -2   0  187.46    8.62
  -5  -2   0  197.89    8.42
  -5  -2   0  192.69    8.24
   5   2   0  182.71    8.27
  -5  -2   0  195.64    7.83
  -5  -2   0  196.27    8.95
  -5  -2   0  196.73    8.63
  -5  -2  -1  114.68    6.55
  -5  -2  -1  113.46    6.36
  -5  -2  -1  117.79    6.19
  -5  -2  -1  117.66    5.87
  -5  -2  -1  100.39    6.12
  -5  -2  -1  111.35    6.30
  -5  -2  -1  118.19    6.64
  -5  -2  -1  110.72    6.16
  -5  -2  -1  120.51    6.03
  -5  -2  -1  120.05    5.95
   5   2   1  114.52    6.09
  -5  -2  -1  115.26    6.20
  -5  -2  -1  113.99    6.54
  -5  -2  -2    1.00    0.98
  -5  -2  -2    0.78    0.77
  -5  -2  -2    1.30    0.95
  -5  -2  -2    1.14    1.04
  -5  -2  -2    4.86    1.37
  -5  -2  -2    2.82    1.15
  -5  -2  -2    0.35    0.89
  -5  -2  -2    3.15    1.12
  -5  -2  -2    2.32    0.86
   5   2   2    2.61    1.02
  -5  -2  -2    2.55    1.22
  -5  -2  -3    1.01    0.92
   5   2   3    1.36    1.07
  -5  -2  -3    1.02    0.91
  -5  -2  -3    0.96    0.93
  -5  -2  -3    3.22    1.31
  -5  -2  -3    0.94    0.78
  -5  -2  -3    0.74    0.79
  -5  -2  -3    0.33    0.82
  -5  -2  -3    0.40    0.85
   5   2   3   -0.05    1.00
  -5  -2  -3   -0.10    0.82
  -5  -2  -4   20.70    2.67
   5   2   4   21.14    2.65
  -5  -2  -4   19.60    2.43
  -5  -2  -4   23.61    2.74
  -5  -2  -4   20.24    2.67
  -5  -2  -4   20.30    2.49
  -5  -2  -4   19.49    2.48
  -5  -2  -4   19.48    2.75
   5   2   4   17.36    2.45
  -5  -2  -4   26.36    3.00
   5   2   5   41.59    3.85
  -5  -2  -5   38.30    3.46
  -5  -2  -5   47.98    3.75
   5   2   5   50.22    4.35
  -5  -2  -5   49.79    4.23
  -5  -2  -5   42.59    3.83
  -5  -2  -5   38.64    3.44
  -5  -2  -5   42.09    4.07
  -5  -2  -5   41.63    4.08
   5   2   5   38.70    3.74
   5   2   6 1085.47   31.19
   5   2   6 1153.24   31.40
  -5  -2  -6 1112.35   31.62
   5   2   6 1148.35   31.23
  -5  -2  -6 1122.88   31.51
  -5  -2  -6 1126.10   32.36
  -5  -2  -6 1123.32   31.84
   5   2   6 1083.33   31.48
   5   2   7  287.72   12.03
   5   2   7  317.61   12.38
  -5  -2  -7  322.71   13.31
  -5  -2  -7  325.15   12.50
   5   2   7  297.70   12.44
   5   2   8   30.94    3.39
   5   2   8   30.42    3.31
  -5  -2  -8   32.87    3.71
  -5  -2  -8   31.42    3.15
   5   2   9   98.51    5.69
   5   2   9  102.89    5.81
  -5  -2  -9  108.86    6.27
  -5  -2  -9   98.24    4.98
   5   2  10    1.15    0.69
  -5  -2 -10    1.47    0.67
   5   2  10    3.34    0.89
  -5  -3   8    0.25    0.38
  -5  -3   8    0.57    0.42
  -5  -3   7   87.03    4.22
  -5  -3   7   99.79    5.01
  -5  -3   7   98.21    4.86
  -5  -3   7   93.81    4.48
  -5  -3   6   90.94    5.03
  -5  -3   6   87.15    5.33
  -5  -3   6   90.33    5.25
  -5  -3   6   79.62    4.81
  -5  -3   5   12.38    1.97
  -5  -3   5   13.59    2.16
  -5  -3   5   10.20    1.95
  -5  -3   5   15.94    2.42
  -5  -3   5   10.64    1.95
   5   3  -4   27.92    3.19
  -5  -3   4   28.49    3.35
  -5  -3   4   29.73    3.23
  -5  -3   4   24.39    3.04
  -5  -3   4   33.31    3.51
  -5  -3   4   24.49    2.97
  -5  -3   4   29.44    3.21
  -5  -3   3  120.66    6.21
  -5  -3   3  127.15    6.20
  -5  -3   3  127.64    6.03
  -5  -3   3  126.72    7.22
   5   3  -3  108.89    6.52
  -5  -3   3  124.33    7.07
  -5  -3   3  119.77    6.91
  -5  -3   3  124.60    7.04
  -5  -3   3  116.56    6.75
  -5  -3   3  128.54    6.92
  -5  -3   2  133.08    6.96
  -5  -3   2  148.32    7.11
  -5  -3   2  130.32    6.50
  -5  -3   2  131.05    7.38
  -5  -3   2  148.13    7.75
   5   3  -2  137.07    7.26
  -5  -3   2  136.21    7.29
  -5  -3   2  142.85    7.29
  -5  -3   2  132.27    6.97
  -5  -3   2  141.82    7.31
  -5  -3   2  144.38    7.28
  -5  -3   1   74.86    5.21
  -5  -3   1   85.86    5.37
  -5  -3   1   79.51    4.93
   5   3  -1   82.59    5.18
  -5  -3   1   74.74    5.02
  -5  -3   1   78.47    5.50
  -5  -3   1   84.05    5.64
  -5  -3   1   82.62    5.34
  -5  -3   1   88.94    5.30
  -5  -3   1   82.72    5.01
  -5  -3   1   87.20    5.62
  -5  -3   1   89.66    5.43
  -5  -3   0   53.82    4.33
  -5  -3   0   53.78    4.24
  -5  -3   0   56.65    4.14
   5   3   0   50.04    4.14
  -5  -3   0   50.46    4.08
  -5  -3   0   51.76    4.22
  -5  -3   0   53.39    4.32
  -5  -3   0   51.78    4.00
  -5  -3   0   54.10    3.84
  -5  -3   0   56.56    3.78
  -5  -3   0   52.35    4.31
  -5  -3   0   57.08    4.14
  -5  -3  -1  718.19   22.24
  -5  -3  -1  754.45   22.08
  -5  -3  -1  774.39   21.89
  -5  -3  -1  718.95   21.75
  -5  -3  -1  722.97   22.03
  -5  -3  -1  706.38   20.59
  -5  -3  -1  713.19   21.76
  -5  -3  -1  779.18   21.30
  -5  -3  -1  686.77   21.94
  -5  -3  -1  737.45   21.12
  -5  -3  -2  372.37   13.92
  -5  -3  -2  376.37   13.59
  -5  -3  -2  388.36   13.67
  -5  -3  -2  345.28   13.14
  -5  -3  -2  390.74   13.83
  -5  -3  -2  363.84   13.18
  -5  -3  -2  378.47   12.51
  -5  -3  -2  417.70   14.49
  -5  -3  -2  389.15   12.84
  -5  -3  -3  160.24    8.14
  -5  -3  -3  159.12    7.86
   5   3   3  184.27    8.82
  -5  -3  -3  181.53    8.46
  -5  -3  -3  157.33    7.78
  -5  -3  -3  168.37    8.13
  -5  -3  -3  168.43    7.74
   5   3   3  170.63    7.14
  -5  -3  -3  160.59    8.14
  -5  -3  -4  355.11   13.31
  -5  -3  -4  379.83   13.23
   5   3   4  383.16   14.09
  -5  -3  -4  363.65   13.60
  -5  -3  -4  343.16   12.80
  -5  -3  -4  368.39   13.57
  -5  -3  -4  341.65   13.05
   5   3   4  359.78   12.29
  -5  -3  -4  373.24   13.60
   5   3   5  131.94    7.47
  -5  -3  -5  143.90    7.32
  -5  -3  -5  145.05    7.10
   5   3   5  143.78    7.81
  -5  -3  -5  144.76    7.88
  -5  -3  -5  142.57    7.43
  -5  -3  -5  140.89    7.40
   5   3   6  327.96   12.97
  -5  -3  -6  342.21   12.09
  -5  -3  -6  323.07   11.60
   5   3   6  338.19   13.12
  -5  -3  -6  320.81   13.49
  -5  -3  -6  358.64   12.91
   5   3   7   40.20    3.91
   5   3   7   36.11    3.60
   5   3   7   34.98    3.59
  -5  -3  -7   42.68    4.40
  -5  -3  -7   41.15    3.62
   5   3   8   16.32    2.49
  -5  -3  -8   20.27    2.67
   5   3   8   12.29    2.24
  -5  -3  -8   21.51    3.03
   5   3   9   28.02    3.03
  -5  -3  -9   28.41    2.74
   5   3   9   25.64    2.85
  -5  -3  -9   31.34    3.44
   5   3  10   -0.90    0.60
  -5  -3 -10   -1.40    0.65
  -5  -3 -10   -0.58    0.81
   5   3  10   -0.32    0.80
  -5  -3 -11   19.50    1.66
   5   3  11   19.04    1.65
  -5  -4   7    3.44    0.69
  -5  -4   7    3.02    0.69
  -5  -4   7    2.98    1.15
  -5  -4   6    0.81    0.73
  -5  -4   6    0.70    0.80
  -5  -4   6    0.68    0.75
  -5  -4   5   53.69    4.00
  -5  -4   5   57.70    4.16
  -5  -4   5   54.29    4.12
  -5  -4   4  120.14    5.71
  -5  -4   4  133.98    5.93
  -5  -4   4  127.29    6.32
  -5  -4   4  121.17    6.80
  -5  -4   4  125.72    6.81
  -5  -4   4  127.10    6.93
  -5  -4   3   14.88    2.07
  -5  -4   3   20.32    2.76
  -5  -4   3   18.18    3.49
  -5  -4   3   21.57    2.96
   5   4  -3   21.82    3.04
  -5  -4   3   20.67    3.34
  -5  -4   3   22.16    3.27
  -5  -4   3   18.57    3.19
  -5  -4   2   25.40    2.89
  -5  -4   2   24.30    2.74
  -5  -4   2   31.10    3.07
  -5  -4   2   26.45    2.72
  -5  -4   2   26.31    3.23
  -5  -4   2   29.69    3.27
   5   4  -2   20.61    2.91
  -5  -4   2   27.81    3.26
  -5  -4   2   31.50    3.19
  -5  -4   2   29.97    3.21
  -5  -4   2   21.52    2.71
  -5  -4   1 1167.29   32.60
  -5  -4   1 1202.48   32.18
   5   4  -1 1163.39   31.55
  -5  -4   1 1187.95   32.02
  -5  -4   1 1141.73   32.57
  -5  -4   1 1170.26   31.27
  -5  -4   1 1207.41   32.85
  -5  -4   1 1203.98   32.49
  -5  -4   1 1198.46   31.81
  -5  -4   1 1167.01   32.63
  -5  -4   0  152.23    8.05
  -5  -4   0  163.98    7.94
   5   4   0  155.36    7.81
  -5  -4   0  162.28    7.84
  -5  -4   0  161.37    8.12
  -5  -4   0  155.40    7.36
  -5  -4   0  162.49    8.17
  -5  -4   0  171.92    7.96
  -5  -4   0  164.23    7.27
  -5  -4   0  163.34    8.31
  -5  -4  -1    0.59    0.88
  -5  -4  -1    0.70    1.05
   5   4   1    0.56    0.71
  -5  -4  -1    0.83    0.94
  -5  -4  -1    0.65    0.89
  -5  -4  -1    0.45    0.83
  -5  -4  -1    3.01    1.37
  -5  -4  -1    2.12    0.87
  -5  -4  -1    0.75    0.88
   5   4   2   58.47    3.92
  -5  -4  -2   57.20    4.77
  -5  -4  -2   58.34    4.60
   5   4   2   56.35    4.58
  -5  -4  -2   56.94    4.46
  -5  -4  -2   57.84    4.36
  -5  -4  -2   53.84    4.16
  -5  -4  -2   51.30    4.26
  -5  -4  -2   56.17    3.81
  -5  -4  -2   54.04    4.56
  -5  -4  -3    1.44    1.21
  -5  -4  -3   -0.15    1.14
   5   4   3    0.89    0.99
  -5  -4  -3    0.31    0.79
  -5  -4  -3    0.20    0.80
  -5  -4  -3   -0.25    0.74
  -5  -4  -3    0.34    0.75
  -5  -4  -4  217.00    9.94
  -5  -4  -4  204.13    9.25
   5   4   4  229.49   10.36
  -5  -4  -4  211.27    9.65
  -5  -4  -4  209.55    8.98
  -5  -4  -4  227.93    9.33
  -5  -4  -4  221.22    9.96
  -5  -4  -5   27.30    3.49
  -5  -4  -5   28.29    3.33
   5   4   5   45.93    4.59
  -5  -4  -5   42.67    4.30
  -5  -4  -5   41.17    3.92
  -5  -4  -5   39.10    3.61
  -5  -4  -5   38.64    3.98
   5   4   6   86.65    6.04
  -5  -4  -6   86.56    5.49
  -5  -4  -6   80.64    5.08
   5   4   6   97.67    6.33
  -5  -4  -6   91.66    5.95
  -5  -4  -6   86.36    5.72
  -5  -4  -6   96.83    5.96
   5   4   7 1192.56   32.79
   5   4   7 1153.15   32.39
  -5  -4  -7 1146.36   31.95
  -5  -4  -7 1162.83   32.44
   5   4   7 1136.92   31.57
   5   4   8  356.07   13.68
  -5  -4  -8  366.62   12.71
  -5  -4  -8  373.89   13.09
  -5  -4  -8  381.01   13.96
   5   4   8  359.98   13.30
   5   4   9   64.60    4.67
  -5  -4  -9   61.22    4.06
  -5  -4  -9   67.12    4.08
  -5  -4  -9   64.68    4.68
   5   4   9   67.22    4.60
   5   4  10   -0.31    0.63
  -5  -4 -10    0.79    0.74
   5   4  10   -0.47    0.73
  -5  -4 -11    1.07    0.57
   5   4  11    0.41    0.52
  -5  -5   6    8.13    1.09
  -5  -5   6    8.49    1.14
  -5  -5   5   12.31    1.70
  -5  -5   5    9.81    1.37
  -5  -5   5   10.87    1.63
  -5  -5   4   13.91    1.71
  -5  -5   4   13.49    1.74
  -5  -5   4   15.17    2.05
  -5  -5   4   14.97    1.92
  -5  -5   4   10.79    1.84
  -5  -5   3   11.33    1.81
  -5  -5   3   14.88    2.05
  -5  -5   3   10.17    1.95
  -5  -5   3   12.18    1.83
  -5  -5   3   11.37    1.94
  -5  -5   2    4.72    1.24
  -5  -5   2    8.10    1.69
  -5  -5   2    5.34    1.47
  -5  -5   2    4.84    1.53
  -5  -5   2    6.63    1.56
   5   5  -2    3.16    1.42
  -5  -5   2    4.79    1.47
  -5  -5   2    4.91    1.48
  -5  -5   1  145.56    7.65
  -5  -5   1  139.23    7.11
  -5  -5   1  149.27    7.61
  -5  -5   1  155.04    7.93
  -5  -5   1  161.89    7.58
  -5  -5   1  144.88    7.60
   5   5  -1  137.79    8.19
  -5  -5   1  158.86    6.89
  -5  -5   1  155.08    7.81
  -5  -5   1  150.95    7.34
  -5  -5   1  153.66    7.97
  -5  -5   0  101.13    6.42
  -5  -5   0  102.08    6.10
   5   5   0  102.82    5.99
  -5  -5   0   94.54    5.95
  -5  -5   0   90.87    5.81
  -5  -5   0   94.02    5.78
  -5  -5   0   98.49    5.37
  -5  -5   0  109.64    6.15
  -5  -5   0  102.59    5.57
  -5  -5   0   93.37    6.21
  -5  -5  -1    7.42    1.82
  -5  -5  -1    7.53    1.93
   5   5   1    8.18    1.77
  -5  -5  -1    8.00    1.79
  -5  -5  -1    7.26    1.63
  -5  -5  -1    9.95    1.90
  -5  -5  -1    7.66    1.61
  -5  -5  -1    7.63    1.59
  -5  -5  -1    6.05    1.56
   5   5   2  160.43    7.75
  -5  -5  -2  156.15    8.49
  -5  -5  -2  159.72    8.07
   5   5   2  148.89    8.12
  -5  -5  -2  146.79    7.82
  -5  -5  -2  161.82    7.51
  -5  -5  -2  160.24    7.96
  -5  -5  -2  151.30    7.29
  -5  -5  -2  157.68    8.48
   5   5   3    5.41    1.46
  -5  -5  -3    4.93    1.51
  -5  -5  -3    7.23    1.95
   5   5   3    7.89    2.02
  -5  -5  -3    6.43    1.73
  -5  -5  -3    3.83    1.32
  -5  -5  -3    5.26    1.32
  -5  -5  -3    7.99    1.79
  -5  -5  -3    2.77    1.35
   5   5   4   48.42    3.66
  -5  -5  -4   50.07    4.51
  -5  -5  -4   27.37    3.38
   5   5   4   49.03    4.49
  -5  -5  -4   48.90    3.89
  -5  -5  -4   51.63    4.59
  -5  -5  -5   12.04    2.15
  -5  -5  -5   15.82    2.60
   5   5   5    9.51    2.08
  -5  -5  -5   17.90    2.52
  -5  -5  -5   15.05    2.28
  -5  -5  -5   11.72    2.15
   5   5   6    9.02    1.99
  -5  -5  -6    6.41    1.61
  -5  -5  -6    6.55    1.63
   5   5   6    6.58    1.87
  -5  -5  -6    7.79    1.74
  -5  -5  -6    8.14    1.87
  -5  -5  -6    7.66    1.87
  -5  -5  -7  130.39    6.53
   5   5   7  129.41    7.33
  -5  -5  -7  116.62    6.29
  -5  -5  -7  122.25    5.98
   5   5   7  127.32    7.38
  -5  -5  -7  124.32    6.60
  -5  -5  -7  125.39    7.04
   5   5   8  108.06    6.39
  -5  -5  -8  117.26    6.11
  -5  -5  -8  103.29    5.57
  -5  -5  -8  117.02    6.63
   5   5   8  120.14    6.26
   5   5   9   83.48    5.08
  -5  -5  -9   80.61    4.65
  -5  -5  -9   79.57    5.03
   5   5   9   67.60    4.45
   5   5  10   62.92    3.90
  -5  -5 -10   54.91    3.67
   5   5  10   61.26    3.71
  -5  -5 -11    6.50    0.96
  -5  -6   5   51.73    2.64
  -5  -6   5   53.08    2.61
  -5  -6   4  105.52    4.53
  -5  -6   4  110.89    5.05
  -5  -6   4  108.82    4.91
  -5  -6   3   81.48    4.53
  -5  -6   3   89.31    4.65
  -5  -6   3   91.07    5.06
  -5  -6   3   86.30    4.76
  -5  -6   2   59.26    4.12
  -5  -6   2   56.04    3.99
  -5  -6   2   59.61    4.28
  -5  -6   2   50.16    3.75
  -5  -6   1    6.49    1.45
  -5  -6   1    7.51    1.64
  -5  -6   1    7.72    1.67
  -5  -6   1    4.02    1.19
  -5  -6   1    5.72    1.28
  -5  -6   1    3.96    1.13
  -5  -6   1    3.20    0.97
  -5  -6   0   98.58    6.20
  -5  -6   0   93.61    5.63
  -5  -6   0  109.52    6.29
  -5  -6   0   94.89    5.82
   5   6   0   95.19    6.62
  -5  -6   0   96.46    5.48
  -5  -6   0  102.93    5.84
  -5  -6   0   92.90    5.20
   5   6   1  451.76   16.25
  -5  -6  -1  482.98   16.90
  -5  -6  -1  453.85   15.70
  -5  -6  -1  446.71   15.78
  -5  -6  -1  464.28   14.83
  -5  -6  -1  468.67   15.92
  -5  -6  -1  460.55   15.27
  -5  -6  -1  466.80   14.99
  -5  -6  -1  471.76   16.86
   5   6   2  128.44    7.20
  -5  -6  -2  128.10    7.63
  -5  -6  -2  123.78    6.99
   5   6   2  124.90    7.28
  -5  -6  -2  133.46    7.24
  -5  -6  -2  128.34    7.14
  -5  -6  -2  130.31    6.85
  -5  -6  -2  125.57    7.61
   5   6   3  339.78   12.83
  -5  -6  -3  337.80   13.84
  -5  -6  -3  319.64   12.76
   5   6   3  317.71   13.27
  -5  -6  -3  352.58   13.05
  -5  -6  -3  348.96   13.29
  -5  -6  -3  341.94   12.73
  -5  -6  -3  323.59   13.59
   5   6   4   38.11    3.58
  -5  -6  -4   32.75    3.78
  -5  -6  -4   33.39    3.52
  -5  -6  -4   30.96    3.37
   5   6   4   33.37    3.77
  -5  -6  -4   34.16    3.71
  -5  -6  -4   34.56    3.91
   5   6   5   45.52    3.86
  -5  -6  -5   49.34    4.56
  -5  -6  -5   61.27    4.25
  -5  -6  -5   50.27    4.32
   5   6   5   51.36    4.77
  -5  -6  -5   55.11    4.43
  -5  -6  -5   60.94    4.57
  -5  -6  -5   60.81    5.14
  -5  -6  -5   52.49    4.75
   5   6   6   89.51    5.13
  -5  -6  -6   82.05    5.62
  -5  -6  -6   81.15    5.10
   5   6   6   94.33    6.09
  -5  -6  -6   82.98    5.21
   5   6   6   91.94    6.30
  -5  -6  -6   85.70    5.27
  -5  -6  -6   87.86    5.58
   5   6   7   10.63    2.05
  -5  -6  -7   11.78    1.83
  -5  -6  -7   11.76    1.95
  -5  -6  -7   11.26    1.72
  -5  -6  -7    9.91    1.94
  -5  -6  -7   10.74    1.85
   5   6   8  168.33    7.69
  -5  -6  -8  158.08    7.18
  -5  -6  -8  164.58    7.69
   5   6   8  163.80    6.94
  -5  -6  -9  455.00   13.97
  -5  -6  -9  470.38   14.61
   5   6   9  436.73   13.59
  -5  -6 -10   41.52    2.82
   5   6  10   33.53    2.29
  -5  -6 -11   10.44    1.13
  -5  -7   3  115.40    4.34
  -5  -7   3  116.17    4.44
   5   7  -2   60.26    3.89
  -5  -7   2   62.66    3.59
  -5  -7   2   63.84    3.58
  -5  -7   2   61.99    3.51
  -5  -7   2   61.25    3.24
   5   7  -1   12.14    1.94
  -5  -7   1   15.48    2.03
  -5  -7   1   11.49    1.66
  -5  -7   1   13.34    1.75
   5   7   0   27.22    2.96
  -5  -7   0   25.75    2.70
  -5  -7   0   26.42    2.72
  -5  -7   0   26.92    2.70
  -5  -7   0   24.84    2.46
  -5  -7   0   25.16    2.39
   5   7   1    5.48    1.55
  -5  -7  -1    5.82    1.46
  -5  -7  -1    4.74    1.29
  -5  -7  -1    5.21    1.36
  -5  -7  -1    6.76    1.63
  -5  -7  -1    6.39    1.40
   5   7   2   18.98    2.76
  -5  -7  -2   16.57    2.36
  -5  -7  -2   16.87    2.53
  -5  -7  -2   15.86    2.23
  -5  -7  -2   21.45    2.91
  -5  -7  -2   19.89    2.50
   5   7   3    4.80    1.39
  -5  -7  -3    6.17    1.63
  -5  -7  -3    2.52    1.46
  -5  -7  -3    5.65    1.40
  -5  -7  -3    4.27    1.50
  -5  -7  -3    5.37    1.52
   5   7   4  126.89    6.75
  -5  -7  -4  128.33    7.41
  -5  -7  -4  125.57    6.70
  -5  -7  -4  125.97    6.49
  -5  -7  -4  138.66    7.13
  -5  -7  -4  131.01    6.90
   5   7   5  314.91   11.46
  -5  -7  -5  311.95   12.34
  -5  -7  -5  307.96   11.34
  -5  -7  -5  307.87   10.91
  -5  -7  -5  276.70   11.42
  -5  -7  -5  301.48   11.67
   5   7   6   89.74    5.09
  -5  -7  -6   94.77    5.71
   5   7   6   91.47    5.43
  -5  -7  -6   81.73    4.91
  -5  -7  -6   83.27    4.57
  -5  -7  -6   91.96    5.56
   5   7   7   92.98    4.88
  -5  -7  -7   89.77    5.13
   5   7   7  105.40    5.44
  -5  -7  -7   93.21    5.45
  -5  -7  -8  114.60    5.35
   5   7   8  125.42    5.58
  -5  -7  -8  119.33    5.88
  -5  -7  -9    6.54    1.17
  -5  -7 -10    7.08    1.01
  -5  -8   1  145.46    5.01
  -5  -8   0    2.88    0.75
  -5  -8   0    4.64    0.91
   5   8   1    3.97    0.94
  -5  -8  -1    3.65    0.92
  -5  -8  -1    3.29    0.82
   5   8   2  100.48    5.22
  -5  -8  -2  101.60    5.35
  -5  -8  -2   99.00    4.80
  -5  -8  -2   97.13    4.91
  -5  -8  -2  108.79    5.02
   5   8   3    3.02    0.99
  -5  -8  -3    1.83    0.96
  -5  -8  -3    3.07    0.91
  -5  -8  -3    2.87    1.02
  -5  -8  -3    3.65    1.00
   5   8   4    6.95    1.33
  -5  -8  -4    7.62    1.64
  -5  -8  -4    8.44    1.26
  -5  -8  -4   10.63    1.63
  -5  -8  -4   11.63    1.68
   5   8   5    8.62    1.50
  -5  -8  -5   11.89    1.81
  -5  -8  -5   10.69    1.33
  -5  -8  -5    9.75    1.49
  -5  -8  -5    8.34    1.42
  -5  -8  -6   29.77    2.72
  -5  -8  -6   25.38    2.34
  -5  -8  -6   27.17    2.45
  -5  -8  -7  187.28    7.00
  -5  -8  -7  210.14    7.48
  -5  -8  -8   14.78    1.42
  -5  -8  -8   16.12    1.62
  -6   3   4    2.55    0.59
  -6   3   3    3.29    0.75
  -6   3   3    6.05    0.99
  -6   3   2   60.96    3.22
  -6   3   2   58.35    3.32
  -6   3   1   25.01    2.04
  -6   3   1   26.30    2.21
  -6   3   1   26.82    1.97
  -6   3   0   66.01    3.33
  -6   3   0   61.62    3.43
  -6   3   0   63.66    3.26
  -6   3  -1   40.99    2.27
  -6   3  -1   43.81    2.52
  -6   3  -2    8.02    0.97
  -6   2   6  103.36    3.90
  -6   2   6  103.37    4.19
  -6   2   6   98.20    3.85
  -6   2   5   82.56    3.93
  -6   2   5   78.00    4.01
  -6   2   5   73.04    3.58
  -6   2   4  150.91    5.68
  -6   2   4  149.66    6.20
  -6   2   4  137.40    6.10
  -6   2   4  134.95    5.54
  -6   2   3   31.64    2.66
  -6   2   3   37.36    3.00
  -6   2   3   37.95    2.99
  -6   2   3   27.91    2.59
  -6   2   3   30.37    2.28
  -6   2   2    1.77    0.76
  -6   2   2    1.30    0.85
  -6   2   2    1.58    0.62
  -6   2   2    2.37    1.10
  -6   2   2    2.96    0.89
  -6   2   1   96.81    5.33
  -6   2   1   99.52    5.71
  -6   2   1   93.66    4.95
  -6   2   1  105.17    5.48
  -6   2   0  174.30    7.60
  -6   2   0  175.50    8.01
  -6   2   0  180.29    7.52
  -6   2   0  172.86    7.49
  -6   2  -1    0.83    0.78
  -6   2  -1    0.93    0.84
  -6   2  -1    0.34    0.85
  -6   2  -1    0.56    0.49
  -6   2  -2   33.84    2.68
  -6   2  -2   33.20    2.82
  -6   2  -2   36.56    2.96
  -6   2  -2   34.70    2.64
  -6   2  -2   31.70    2.46
  -6   2  -3  169.29    5.99
  -6   2  -3  180.07    7.01
  -6   2  -3  183.18    6.77
  -6   2  -3  181.26    6.62
  -6   2  -4   41.50    2.62
  -6   2  -4   41.87    2.58
  -6   2  -4   42.04    2.50
  -6   1   7   20.69    1.59
  -6   1   6   38.55    2.54
  -6   1   6   43.70    3.00
  -6   1   6   41.93    2.85
  -6   1   6   38.88    2.65
  -6   1   5   10.32    1.70
  -6   1   5   13.53    1.75
  -6   1   5   11.19    1.66
  -6   1   5    9.00    1.46
  -6   1   4    0.48    0.77
  -6   1   4   -0.42    0.73
  -6   1   4    0.32    0.61
  -6   1   4   -0.59    0.79
  -6   1   4   -0.50    0.73
  -6   1   3  121.54    6.09
  -6   1   3  115.58    6.25
  -6   1   3  109.94    5.96
  -6   1   3  116.89    6.48
  -6   1   3  110.20    5.90
  -6   1   3  114.42    6.17
  -6   1   2  195.66    8.58
  -6   1   2  196.13    9.10
  -6   1   2  190.46    7.51
  -6   1   2  202.96    8.65
  -6   1   2  198.85    7.68
  -6   1   2  177.61    8.42
  -6   1   2  183.61    7.92
  -6   1   2  187.34    8.53
  -6   1   1    0.66    0.79
  -6   1   1    0.37    0.89
  -6   1   1    4.23    1.20
  -6   1   1    1.92    1.47
  -6   1   1    2.77    1.10
  -6   1   1    3.16    1.09
  -6   1   1    4.65    1.22
  -6   1   0  198.43    9.18
  -6   1   0  192.17    9.57
  -6   1   0  206.09    8.90
  -6   1   0  217.00    9.14
  -6   1   0  212.94    8.45
  -6   1   0  225.69    9.06
  -6   1  -1  156.63    7.73
  -6   1  -1  154.86    8.19
  -6   1  -1  154.30    7.64
  -6   1  -1  150.88    6.81
  -6   1  -1  164.54    7.63
  -6   1  -1  155.40    7.54
  -6   1  -2    0.29    0.98
  -6   1  -2   -0.13    0.93
  -6   1  -2   -0.44    1.00
  -6   1  -2    1.94    0.97
  -6   1  -2    1.76    0.99
  -6   1  -3   59.78    4.01
  -6   1  -3   57.61    4.23
  -6   1  -3   62.22    4.42
  -6   1  -3   62.34    4.17
  -6   1  -3   61.19    4.43
  -6   1  -4    0.90    0.59
  -6   1  -4    0.68    0.89
  -6   1  -4    0.13    0.61
  -6   1  -4    0.65    0.83
  -6   1  -5   14.29    1.81
  -6   1  -5   12.98    1.69
  -6   1  -5   17.32    2.10
  -6   1  -6  118.53    5.12
  -6   0   7   20.05    1.74
  -6   0   7   17.42    1.68
  -6   0   6   83.88    4.56
  -6   0   6   78.85    4.37
  -6   0   6   69.64    4.15
  -6   0   6   71.04    4.21
  -6   0   5   19.16    2.57
  -6   0   5   14.19    1.82
  -6   0   5   14.13    2.13
  -6   0   5   13.56    2.02
  -6   0   5   13.51    2.07
  -6   0   4    8.90    1.96
  -6   0   4    9.95    1.55
  -6   0   4   12.04    1.82
  -6   0   4    8.67    1.40
  -6   0   4    9.53    1.88
  -6   0   4   11.18    1.96
  -6   0   4    9.77    1.87
  -6   0   3  162.20    7.48
  -6   0   3  156.00    7.39
  -6   0   3  162.74    8.28
  -6   0   3  147.17    6.97
  -6   0   3  149.05    7.64
  -6   0   3  156.98    7.94
  -6   0   3  160.74    8.08
  -6   0   2   36.55    3.63
  -6   0   2   40.75    3.71
  -6   0   2   33.73    3.61
  -6   0   2   35.14    3.30
  -6   0   2   32.17    3.54
  -6   0   2   38.53    3.47
  -6   0   2   29.52    3.21
  -6   0   2   35.98    3.65
  -6   0   1   26.82    3.12
  -6   0   1   24.29    2.99
  -6   0   1   24.18    3.08
  -6   0   1   23.09    2.52
  -6   0   1   23.01    3.14
  -6   0   1   24.43    2.77
  -6   0   1   26.78    3.19
  -6   0   1   24.58    2.84
  -6   0   1   21.29    2.64
   6   0  -1   25.25    3.41
  -6   0   1   24.37    3.14
  -6   0   0  269.28   11.42
  -6   0   0  258.99   11.06
  -6   0   0  249.44   11.47
  -6   0   0  257.56   10.32
  -6   0   0  272.53   10.53
  -6   0   0  270.09   11.47
  -6   0   0  259.08   10.70
  -6   0   0  265.48   11.08
  -6   0   0  268.53   10.14
   6   0   0  247.60   11.50
  -6   0  -1   68.73    5.22
  -6   0  -1   75.93    5.35
  -6   0  -1   69.91    4.39
  -6   0  -1   68.50    5.50
  -6   0  -1   71.31    5.03
  -6   0  -1   70.13    4.38
  -6   0  -1   69.04    4.67
  -6   0  -1   71.01    4.60
  -6   0  -1   66.02    5.22
  -6   0  -1   73.32    5.32
   6   0   1   60.64    5.18
  -6   0  -2   75.80    5.34
  -6   0  -2   76.05    5.24
  -6   0  -2   70.95    5.48
  -6   0  -2   75.87    5.29
  -6   0  -2   70.29    4.66
  -6   0  -2   69.63    5.25
  -6   0  -2   77.53    5.54
   6   0   2   74.94    5.72
  -6   0  -3  226.44    9.56
  -6   0  -3  225.45   10.08
  -6   0  -3  219.34    9.83
  -6   0  -3  215.39    9.21
  -6   0  -3  219.24   10.15
  -6   0  -4   92.22    5.20
  -6   0  -4   95.00    5.90
  -6   0  -4   87.05    5.42
  -6   0  -4   95.17    6.08
  -6   0  -5    0.04    0.86
  -6   0  -5    1.24    0.81
  -6   0  -5    0.29    0.85
  -6   0  -6    1.17    0.88
  -6   0  -6    0.59    0.62
  -6   0  -6    2.11    1.07
  -6   0  -7    5.40    1.13
  -6   0  -8   23.70    1.70
  -6   0  -8   20.59    1.58
  -6  -1   7   89.07    3.82
  -6  -1   7   81.48    3.99
  -6  -1   7   84.92    4.07
  -6  -1   6    8.06    1.41
  -6  -1   6    4.57    1.13
  -6  -1   6    6.24    1.19
  -6  -1   6    4.38    1.07
  -6  -1   5    2.44    1.40
  -6  -1   5    0.93    0.60
  -6  -1   5    0.53    0.77
  -6  -1   5   -0.30    0.78
  -6  -1   5    1.41    1.03
  -6  -1   5    1.98    1.07
  -6  -1   5    2.06    1.21
  -6  -1   4   28.92    2.57
  -6  -1   4   34.64    2.91
  -6  -1   4   32.42    3.46
  -6  -1   4   36.57    3.22
  -6  -1   4   31.62    3.36
  -6  -1   4   33.30    3.16
  -6  -1   4   34.08    3.40
  -6  -1   4   33.47    3.23
  -6  -1   4   35.37    3.50
  -6  -1   3  206.04    8.87
  -6  -1   3  218.91    8.91
  -6  -1   3  200.78    8.30
  -6  -1   3  205.09    9.88
  -6  -1   3  216.14    9.24
  -6  -1   3  186.22    9.20
  -6  -1   3  204.24    9.07
  -6  -1   3  206.64    9.45
  -6  -1   3  195.64    8.82
  -6  -1   3  219.45    9.85
  -6  -1   2   26.56    3.40
  -6  -1   2   33.03    3.39
  -6  -1   2   34.02    3.39
  -6  -1   2   32.34    2.95
  -6  -1   2   26.20    3.08
  -6  -1   2   32.03    3.41
  -6  -1   2   30.23    3.40
  -6  -1   2   31.55    3.28
  -6  -1   2   35.44    3.58
  -6  -1   2   30.44    3.15
   6   1  -2   26.38    3.46
  -6  -1   2   34.70    3.65
  -6  -1   1   10.79    2.24
  -6  -1   1    8.41    1.85
  -6  -1   1    7.36    1.75
  -6  -1   1    8.65    1.82
  -6  -1   1   10.71    2.17
  -6  -1   1    9.07    2.00
  -6  -1   1   10.22    1.94
  -6  -1   1    9.66    1.93
   6   1  -1    4.28    1.43
  -6  -1   1    9.66    2.12
  -6  -1   0   42.52    4.05
  -6  -1   0   42.91    4.07
  -6  -1   0   45.26    3.43
  -6  -1   0   42.25    3.46
  -6  -1   0   36.34    3.77
  -6  -1   0   42.21    4.03
  -6  -1   0   44.54    4.16
  -6  -1   0   47.84    4.02
   6   1   0   40.55    4.08
  -6  -1   0   39.08    3.85
  -6  -1  -1   57.31    4.75
  -6  -1  -1   60.58    4.85
  -6  -1  -1   56.72    4.16
  -6  -1  -1   52.54    4.82
  -6  -1  -1   58.26    4.35
  -6  -1  -1   48.71    4.43
  -6  -1  -1   56.69    4.79
  -6  -1  -1   56.89    4.20
   6   1   1   58.03    4.92
  -6  -1  -2   71.80    5.34
  -6  -1  -2   81.84    5.60
  -6  -1  -2   75.07    5.13
  -6  -1  -2   87.10    5.60
  -6  -1  -2   78.71    4.77
  -6  -1  -2   74.35    5.47
  -6  -1  -2   78.01    5.72
   6   1   2   65.73    5.31
  -6  -1  -3   29.72    3.25
  -6  -1  -3   27.04    3.14
  -6  -1  -3   28.64    3.24
  -6  -1  -3   29.36    2.99
  -6  -1  -3   27.00    3.22
  -6  -1  -3   30.58    3.54
   6   1   3   23.42    3.12
  -6  -1  -4   73.29    5.09
  -6  -1  -4   80.48    5.21
  -6  -1  -4   85.55    5.67
  -6  -1  -4   74.63    5.05
  -6  -1  -4   75.77    5.67
   6   1   4   74.11    5.68
  -6  -1  -5    2.61    0.85
  -6  -1  -5    0.04    0.80
  -6  -1  -5    2.39    1.24
  -6  -1  -5    3.42    1.24
  -6  -1  -5    2.21    1.42
  -6  -1  -5    1.47    0.76
  -6  -1  -6   87.12    5.41
  -6  -1  -6   89.77    5.35
  -6  -1  -6   79.57    4.92
  -6  -1  -6   81.88    5.44
  -6  -1  -7   17.21    2.25
  -6  -1  -7   18.40    2.07
  -6  -1  -8    1.63    0.64
  -6  -1  -8    1.50    0.61
  -6  -1  -9   62.31    2.84
  -6  -2   7  119.77    4.82
  -6  -2   7  118.34    4.73
  -6  -2   7  119.42    4.65
  -6  -2   6   67.62    3.75
  -6  -2   6   55.76    3.37
  -6  -2   6   69.31    4.06
  -6  -2   6   64.92    3.88
  -6  -2   6   60.47    3.78
  -6  -2   5  116.35    5.86
  -6  -2   5  129.56    6.34
  -6  -2   5  120.37    5.95
  -6  -2   5  119.53    6.23
  -6  -2   5  114.74    5.95
  -6  -2   5  118.32    6.17
  -6  -2   4    2.47    1.16
  -6  -2   4    4.45    1.56
  -6  -2   4    3.19    1.41
  -6  -2   4    1.20    0.78
  -6  -2   4    4.97    1.29
  -6  -2   4    4.22    1.45
  -6  -2   3  143.29    6.93
  -6  -2   3  142.76    6.81
  -6  -2   3  150.04    7.63
  -6  -2   3  154.76    8.02
  -6  -2   3  133.99    7.21
  -6  -2   3  148.00    7.63
  -6  -2   3  145.56    7.26
  -6  -2   3  151.03    7.80
  -6  -2   2   83.09    5.42
  -6  -2   2   91.40    5.60
  -6  -2   2   79.80    5.93
  -6  -2   2   79.79    5.36
  -6  -2   2   89.43    5.88
  -6  -2   2   81.43    5.76
  -6  -2   2   82.48    5.47
  -6  -2   2   85.02    5.60
   6   2  -2   77.09    5.59
  -6  -2   2   86.95    5.31
  -6  -2   2   79.79    5.58
  -6  -2   1  850.46   25.52
  -6  -2   1  898.73   25.65
  -6  -2   1  854.24   26.30
  -6  -2   1  848.47   25.47
  -6  -2   1  912.17   26.17
  -6  -2   1  829.39   25.62
  -6  -2   1  876.41   25.30
  -6  -2   1  867.80   25.13
   6   2  -1  819.64   25.50
  -6  -2   1  858.09   24.23
  -6  -2   1  908.33   25.98
  -6  -2   0    0.45    0.85
  -6  -2   0    1.45    0.98
  -6  -2   0    1.75    1.01
  -6  -2   0    0.85    1.03
  -6  -2   0    0.65    1.06
  -6  -2   0    2.13    1.28
  -6  -2   0   -0.35    0.83
  -6  -2   0    0.09    0.77
   6   2   0    0.99    1.05
  -6  -2   0   -0.16    0.88
  -6  -2  -1   15.20    2.51
  -6  -2  -1   15.96    2.57
  -6  -2  -1   21.20    2.67
  -6  -2  -1   15.05    2.02
  -6  -2  -1   18.27    2.64
  -6  -2  -1   16.93    2.70
  -6  -2  -1   15.47    2.39
  -6  -2  -1   15.13    2.25
   6   2   1   16.12    2.46
  -6  -2  -1   16.98    2.54
   6   2   2  252.76    9.72
  -6  -2  -2  247.29   10.89
  -6  -2  -2  262.33   11.03
  -6  -2  -2  257.11   10.61
  -6  -2  -2  252.20   10.16
  -6  -2  -2  246.53   10.87
  -6  -2  -2  242.93   10.98
  -6  -2  -2  246.07   10.08
   6   2   2  248.59   10.66
   6   2   3   23.95    2.64
  -6  -2  -3   28.86    3.22
  -6  -2  -3   25.07    3.08
  -6  -2  -3   27.14    3.22
  -6  -2  -3   22.48    2.85
  -6  -2  -3   21.80    2.48
  -6  -2  -3   21.46    2.86
  -6  -2  -3   20.91    3.03
  -6  -2  -3   25.89    2.64
   6   2   3   28.47    3.21
   6   2   4  126.83    6.56
  -6  -2  -4  108.90    6.55
  -6  -2  -4  125.65    6.84
  -6  -2  -4  127.00    7.04
  -6  -2  -4  118.37    6.41
  -6  -2  -4  116.24    6.77
  -6  -2  -4  114.00    7.09
   6   2   4  120.09    7.02
   6   2   5   -0.08    0.88
  -6  -2  -5    1.81    1.05
  -6  -2  -5    1.18    0.90
   6   2   5    2.57    1.37
  -6  -2  -5    0.24    0.96
  -6  -2  -5    0.51    0.91
   6   2   5    1.64    1.57
  -6  -2  -5    0.55    0.73
   6   2   6   26.56    2.90
  -6  -2  -6   21.14    2.83
  -6  -2  -6   21.26    2.72
   6   2   7  209.36    8.76
  -6  -2  -7  206.07    9.06
  -6  -2  -7  217.96    9.11
   6   2   8    3.34    1.13
  -6  -2  -8    2.73    0.88
  -6  -2  -8    2.31    0.97
  -6  -2  -9    0.50    0.61
  -6  -3   7   33.12    1.92
  -6  -3   6   29.60    2.26
  -6  -3   6   33.18    2.49
  -6  -3   6   34.23    2.51
  -6  -3   5   92.42    4.79
  -6  -3   5   85.39    4.72
  -6  -3   5   94.22    5.07
  -6  -3   5   85.07    4.80
  -6  -3   5   88.51    4.73
  -6  -3   4   49.75    3.93
  -6  -3   4   49.81    3.87
  -6  -3   4   38.66    3.40
  -6  -3   4   39.79    3.48
  -6  -3   4   43.58    3.58
  -6  -3   4   44.96    3.54
  -6  -3   3   14.00    1.84
  -6  -3   3   18.67    2.61
  -6  -3   3   17.18    2.57
  -6  -3   3   18.65    2.57
  -6  -3   3   17.84    2.46
  -6  -3   3   20.80    2.57
  -6  -3   3   24.60    2.77
  -6  -3   2  280.33   11.14
  -6  -3   2  304.54   11.19
  -6  -3   2  296.95   12.06
  -6  -3   2  279.34   11.78
  -6  -3   2  274.45   11.31
  -6  -3   2  297.88   11.35
  -6  -3   2  283.11   10.91
  -6  -3   2  300.41   11.50
  -6  -3   1   14.93    2.47
  -6  -3   1   11.14    2.04
  -6  -3   1   11.59    2.08
  -6  -3   1   12.45    1.83
   6   3  -1   13.38    2.34
  -6  -3   1   13.31    2.31
  -6  -3   1   11.81    2.28
  -6  -3   1   13.20    2.23
  -6  -3   1   11.26    1.82
  -6  -3   1   12.35    1.85
  -6  -3   1   16.24    2.39
  -6  -3   0   82.45    5.84
  -6  -3   0   83.64    5.72
  -6  -3   0   95.62    5.59
   6   3   0   85.76    5.99
  -6  -3   0   89.00    5.90
  -6  -3   0   88.17    6.01
  -6  -3   0   91.85    6.04
  -6  -3   0   98.88    5.83
  -6  -3   0   99.87    5.48
  -6  -3   0   92.34    5.67
  -6  -3   0   88.49    6.13
  -6  -3  -1  362.59   14.24
  -6  -3  -1  387.09   14.27
   6   3   1  366.47   14.62
  -6  -3  -1  394.09   13.83
  -6  -3  -1  393.67   14.41
  -6  -3  -1  336.44   13.85
  -6  -3  -1  376.34   14.00
  -6  -3  -1  379.49   13.27
  -6  -3  -1  399.64   13.64
  -6  -3  -1  395.10   14.89
  -6  -3  -2   92.88    6.22
  -6  -3  -2   92.39    6.06
   6   3   2   92.35    6.50
  -6  -3  -2   96.19    6.00
  -6  -3  -2   90.71    6.09
  -6  -3  -2   89.75    6.06
  -6  -3  -2   93.40    5.80
  -6  -3  -2   94.59    5.31
  -6  -3  -2   95.85    6.46
  -6  -3  -3   17.30    2.59
   6   3   3   12.50    2.18
  -6  -3  -3   12.97    2.28
  -6  -3  -3   15.87    2.55
   6   3   3   14.68    2.55
  -6  -3  -3   15.90    2.41
  -6  -3  -3   16.50    2.52
  -6  -3  -3   11.10    2.15
  -6  -3  -3   13.84    2.24
   6   3   4  139.05    7.40
  -6  -3  -4  133.71    7.45
  -6  -3  -4  137.84    7.34
   6   3   4  141.16    8.20
  -6  -3  -4  135.68    7.58
  -6  -3  -4  125.64    6.43
  -6  -3  -4  139.16    7.64
  -6  -3  -4  130.41    7.54
   6   3   5   62.73    4.81
  -6  -3  -5   62.29    4.66
  -6  -3  -5   66.62    4.71
   6   3   5   65.61    5.30
  -6  -3  -5   62.53    5.01
  -6  -3  -5   58.08    4.73
   6   3   6    0.29    0.95
  -6  -3  -6    0.99    0.98
  -6  -3  -6    2.32    0.94
  -6  -3  -6    1.33    1.01
  -6  -3  -6   -0.98    0.90
   6   3   7  219.59    9.28
  -6  -3  -7  191.79    8.97
  -6  -3  -7  196.37    8.44
   6   3   8   12.20    1.99
  -6  -3  -8   11.39    1.85
  -6  -3  -8   15.52    1.76
   6   3   9   61.71    3.90
  -6  -3  -9   67.87    3.75
  -6  -3  -9   62.11    3.79
  -6  -3 -10    5.80    0.94
  -6  -4   6   -0.80    0.53
  -6  -4   6   -0.08    0.41
  -6  -4   5  134.61    5.82
  -6  -4   5  132.50    5.54
  -6  -4   5  141.32    5.89
  -6  -4   4   48.02    3.37
  -6  -4   4   45.64    3.49
  -6  -4   4   42.77    3.20
  -6  -4   4   45.20    3.35
  -6  -4   3    4.54    1.54
  -6  -4   3    1.73    0.85
  -6  -4   3    3.91    1.25
  -6  -4   3    2.64    1.00
  -6  -4   3    3.53    1.17
  -6  -4   2    1.57    0.93
  -6  -4   2    0.73    0.70
  -6  -4   2    2.93    1.05
  -6  -4   2    1.58    1.30
  -6  -4   2    0.99    1.00
  -6  -4   2    2.02    1.16
  -6  -4   2    0.58    0.86
  -6  -4   2    1.85    0.97
  -6  -4   1  476.50   16.08
  -6  -4   1  486.65   15.81
  -6  -4   1  454.82   15.13
  -6  -4   1  449.81   16.17
  -6  -4   1  475.90   16.41
   6   4  -1  433.27   16.18
  -6  -4   1  476.99   15.92
  -6  -4   1  474.96   14.89
  -6  -4   1  481.14   16.59
  -6  -4   0  748.31   23.45
  -6  -4   0  797.34   23.35
   6   4   0  751.87   23.35
  -6  -4   0  760.09   22.65
  -6  -4   0  762.16   23.45
  -6  -4   0  736.64   23.31
  -6  -4   0  789.19   22.78
  -6  -4   0  784.15   24.17
  -6  -4  -1  131.44    7.53
  -6  -4  -1  131.52    7.29
   6   4   1  114.57    7.12
  -6  -4  -1  126.67    6.99
  -6  -4  -1  131.31    7.40
  -6  -4  -1  123.60    6.10
  -6  -4  -1  131.53    7.31
  -6  -4  -1  123.41    6.43
  -6  -4  -1  113.56    7.23
  -6  -4  -2    6.20    1.73
  -6  -4  -2    7.47    1.85
   6   4   2    4.95    1.50
  -6  -4  -2    8.16    1.80
  -6  -4  -2    6.95    1.61
  -6  -4  -2    8.00    1.58
  -6  -4  -2    4.34    1.49
  -6  -4  -2    6.40    1.26
  -6  -4  -2    5.70    1.55
  -6  -4  -3  381.14   14.75
  -6  -4  -3  379.95   14.29
   6   4   3  399.95   15.39
  -6  -4  -3  400.20   14.56
  -6  -4  -3  386.21   14.21
  -6  -4  -3  394.26   13.55
  -6  -4  -3  383.15   15.04
  -6  -4  -4   22.07    2.87
  -6  -4  -4   21.07    2.89
   6   4   4   23.92    3.23
  -6  -4  -4   20.78    3.01
  -6  -4  -4   19.93    2.35
  -6  -4  -4   29.56    3.40
  -6  -4  -4   22.93    3.19
  -6  -4  -5    7.35    2.02
   6   4   5   14.74    2.79
  -6  -4  -5    5.24    1.52
  -6  -4  -5    7.81    1.74
   6   4   5    8.16    2.10
  -6  -4  -5    9.62    2.28
  -6  -4  -5    6.06    1.33
  -6  -4  -5    8.05    1.81
   6   4   6   90.31    5.93
  -6  -4  -6   83.05    5.23
  -6  -4  -6   87.67    5.17
  -6  -4  -6   93.19    5.97
  -6  -4  -6   89.10    5.45
  -6  -4  -6   94.57    5.29
   6   4   7   22.19    2.78
  -6  -4  -7   23.00    2.77
  -6  -4  -7   20.78    2.59
   6   4   8  258.97   10.24
  -6  -4  -8  241.72    9.59
  -6  -4  -8  271.68   10.07
   6   4   9  125.48    6.12
  -6  -4  -9  135.55    5.59
  -6  -4  -9  136.98    6.06
  -6  -4 -10    5.27    0.90
  -6  -5   5    4.91    0.85
  -6  -5   5    4.27    0.75
  -6  -5   4   52.37    3.33
  -6  -5   4   52.02    3.16
  -6  -5   3    5.17    1.29
  -6  -5   3    6.45    1.33
  -6  -5   2   51.23    3.32
  -6  -5   2   54.39    3.68
  -6  -5   2   55.82    4.22
  -6  -5   2   56.66    4.08
  -6  -5   2   48.44    3.50
  -6  -5   1  137.56    7.04
  -6  -5   1  138.82    6.68
  -6  -5   1  141.64    6.89
  -6  -5   1  132.97    7.13
  -6  -5   1  135.81    6.19
  -6  -5   1  150.86    7.24
  -6  -5   1  141.60    6.35
  -6  -5   0  162.43    8.14
  -6  -5   0  157.91    7.69
  -6  -5   0  149.60    7.51
  -6  -5   0  149.77    7.66
  -6  -5   0  154.31    6.99
  -6  -5   0  164.31    7.59
  -6  -5  -1    6.76    1.73
  -6  -5  -1    8.47    1.96
   6   5   1    7.81    2.10
  -6  -5  -1    7.30    1.78
  -6  -5  -1   11.25    2.00
  -6  -5  -1    8.98    1.67
  -6  -5  -1    6.10    1.31
  -6  -5  -1    6.56    1.39
  -6  -5  -2    4.35    1.65
  -6  -5  -2    7.11    1.91
   6   5   2    6.44    1.83
  -6  -5  -2    4.13    1.46
  -6  -5  -2    7.71    1.66
  -6  -5  -2    5.17    1.36
  -6  -5  -2    0.50    0.96
  -6  -5  -3    0.18    1.15
  -6  -5  -3    1.92    1.08
   6   5   3    1.49    1.05
  -6  -5  -3    0.92    0.98
  -6  -5  -3   -0.16    0.96
  -6  -5  -3    0.68    0.83
  -6  -5  -3    2.00    1.44
  -6  -5  -4   10.84    2.04
  -6  -5  -4   12.50    2.29
   6   5   4   18.23    2.91
  -6  -5  -4   14.59    2.38
  -6  -5  -4   11.43    1.73
  -6  -5  -4   13.10    1.86
  -6  -5  -4    8.46    1.79
  -6  -5  -4   11.31    2.39
   6   5   5   46.27    4.48
  -6  -5  -5   49.82    4.31
  -6  -5  -5   46.64    3.99
  -6  -5  -5   47.14    4.13
  -6  -5  -5   46.81    3.67
   6   5   6   77.53    5.46
  -6  -5  -6   80.75    5.19
  -6  -5  -6   70.72    4.65
  -6  -5  -6   77.10    5.19
  -6  -5  -6   74.75    4.80
   6   5   7   15.96    2.36
  -6  -5  -7   14.24    1.78
  -6  -5  -7   15.81    2.18
  -6  -5  -7   12.32    1.96
   6   5   8   71.40    4.65
  -6  -5  -8   64.15    4.01
  -6  -5  -8   72.43    4.46
   6   5   9  143.40    6.30
  -6  -5  -9  125.59    4.98
  -6  -5  -9  146.31    6.11
  -6  -5 -10   38.40    2.40
  -6  -6   4   46.43    2.38
  -6  -6   3    5.82    1.08
  -6  -6   2    2.24    0.79
  -6  -6   2    2.85    0.94
   6   6  -1   49.39    3.79
  -6  -6   1   47.51    3.42
  -6  -6   1   46.20    3.09
  -6  -6   1   47.98    3.46
  -6  -6   1   45.89    3.16
  -6  -6   1   51.03    3.54
   6   6   0  282.25   10.70
  -6  -6   0  274.06   10.73
  -6  -6   0  274.41   10.16
  -6  -6   0  286.97   10.60
  -6  -6   0  272.18    9.97
  -6  -6   0  275.84    9.97
   6   6   1  540.64   17.29
  -6  -6  -1  547.51   18.13
  -6  -6  -1  561.63   17.55
  -6  -6  -1  593.60   17.89
  -6  -6  -1  526.66   16.59
  -6  -6  -1  575.81   17.31
  -6  -6  -1  567.11   16.39
   6   6   2  455.85   14.70
  -6  -6  -2  457.73   16.05
  -6  -6  -2  441.58   15.18
  -6  -6  -2  459.29   15.34
  -6  -6  -2  426.61   13.80
  -6  -6  -2  442.80   14.85
  -6  -6  -2  455.30   13.82
  -6  -6  -3    1.30    1.16
  -6  -6  -3    0.83    1.00
  -6  -6  -3    2.43    1.16
  -6  -6  -3    1.18    0.76
  -6  -6  -3    0.24    0.74
  -6  -6  -4   30.90    3.45
  -6  -6  -4   29.49    3.22
  -6  -6  -4   30.92    3.20
  -6  -6  -4   22.69    2.78
  -6  -6  -4   26.45    2.68
  -6  -6  -5   46.66    4.12
  -6  -6  -5   45.87    3.78
  -6  -6  -5   48.10    3.90
  -6  -6  -5   49.55    4.06
   6   6   6   16.31    2.37
  -6  -6  -6   15.89    2.07
  -6  -6  -6   13.28    2.04
  -6  -6  -6   10.89    1.85
  -6  -6  -6   11.04    1.79
  -6  -6  -6   14.59    2.34
   6   6   7    2.62    0.84
  -6  -6  -7    2.10    0.75
  -6  -6  -7    3.09    1.02
  -6  -6  -7    3.20    1.02
   6   6   8    1.44    0.72
  -6  -6  -8    0.38    0.57
  -6  -6  -8    0.88    0.77
  -6  -6  -9  193.71    7.00
  -6  -6 -10  244.87    7.52
  -6  -7   2    4.70    0.71
  -6  -7   1   84.46    4.03
  -6  -7   1   83.69    3.78
   6   7   0   76.33    4.39
  -6  -7   0   79.36    4.28
  -6  -7   0   75.76    3.99
   6   7   1  106.17    5.51
  -6  -7  -1  117.90    5.88
  -6  -7  -1  107.33    5.22
  -6  -7  -1  108.61    5.46
  -6  -7  -1  112.66    5.38
   6   7   2   24.70    2.52
  -6  -7  -2   25.49    2.60
  -6  -7  -2   20.61    2.54
  -6  -7  -2   25.63    2.64
  -6  -7  -2   24.81    2.56
  -6  -7  -2   27.40    2.30
   6   7   3    5.13    1.24
  -6  -7  -3    6.44    1.60
  -6  -7  -3    6.49    1.46
  -6  -7  -3    5.76    1.32
  -6  -7  -3    6.94    1.48
  -6  -7  -3    7.40    1.33
  -6  -7  -4   23.73    2.57
  -6  -7  -4   22.66    2.74
  -6  -7  -4   23.42    2.48
  -6  -7  -4   25.38    2.63
  -6  -7  -4   24.08    2.34
  -6  -7  -5  100.37    5.73
   6   7   5  112.63    5.95
  -6  -7  -5   92.92    5.13
  -6  -7  -5   94.18    5.03
  -6  -7  -5  104.86    5.53
  -6  -7  -5   93.51    4.95
   6   7   6    6.61    1.42
  -6  -7  -6    6.76    1.29
  -6  -7  -6    5.39    1.32
  -6  -7  -6    6.38    1.34
  -6  -7  -6    8.53    1.61
  -6  -7  -6    8.70    1.55
   6   7   7    1.21    0.76
  -6  -7  -7    1.33    0.57
  -6  -7  -7    3.73    1.15
  -6  -7  -7    1.85    0.73
  -6  -7  -8    5.23    1.10
  -6  -7  -8    3.31    0.89
  -6  -7  -9   64.03    3.09
  -6  -7  -9   61.21    2.85
  -6  -8  -1    4.09    0.78
  -6  -8  -1    3.26    0.69
  -6  -8  -2  540.67   14.97
  -6  -8  -2  574.58   15.14
  -6  -8  -3  137.99    5.39
  -6  -8  -3  148.22    5.67
  -6  -8  -3  137.62    5.05
  -6  -8  -4   35.71    2.38
  -6  -8  -4   42.39    2.78
  -6  -8  -4   37.73    2.37
  -6  -8  -5    3.86    0.82
  -6  -8  -5    5.78    1.11
  -6  -8  -5    4.85    1.02
  -6  -8  -6   41.82    2.68
  -6  -8  -6   41.68    2.49
  -6  -8  -7   24.34    1.79
  -6  -8  -7   23.23    1.64
  -7   1   3  152.61    5.10
  -7   1   2    4.46    0.93
  -7   1   1    1.02    0.65
  -7   1   0   89.87    4.43
  -7   1  -1    6.76    1.13
  -7   1  -1    5.16    0.93
  -7   1  -2   17.83    1.61
  -7   1  -2   19.42    1.72
  -7   1  -2   16.26    1.45
  -7   1  -3   14.49    1.39
  -7   1  -3   12.15    1.20
  -7   0   5   13.98    1.27
  -7   0   4   18.80    1.74
  -7   0   3    1.45    0.57
  -7   0   3    0.33    0.57
  -7   0   2   18.91    2.02
  -7   0   2   19.66    1.97
  -7   0   1  133.48    6.15
  -7   0   1  128.09    5.61
  -7   0   1  117.29    5.02
  -7   0   0   44.08    3.49
  -7   0   0   56.20    3.63
  -7   0  -1  105.60    5.48
  -7   0  -1   96.08    4.78
  -7   0  -1  103.58    5.35
  -7   0  -2   56.51    3.72
  -7   0  -2   51.58    3.44
  -7   0  -2   52.46    3.66
  -7   0  -3    0.71    0.59
  -7   0  -3    0.50    0.67
  -7   0  -3    0.25    0.68
  -7   0  -4   93.58    3.89
  -7   0  -4  102.32    4.74
  -7   0  -4  100.84    4.86
  -7   0  -5    1.12    0.53
  -7   0  -5    0.35    0.47
  -7  -1   5   16.62    1.56
  -7  -1   5   15.06    1.54
  -7  -1   4   16.60    1.86
  -7  -1   4   19.93    2.03
  -7  -1   3    7.17    1.21
  -7  -1   3    7.57    1.27
  -7  -1   3    5.96    1.36
  -7  -1   3    6.56    1.37
  -7  -1   2   18.57    2.11
  -7  -1   2   18.39    2.14
  -7  -1   2   20.23    2.27
  -7  -1   2   17.09    2.16
  -7  -1   1   14.54    2.08
  -7  -1   1   15.30    2.17
  -7  -1   1   18.44    2.27
  -7  -1   1   17.52    2.10
  -7  -1   0    5.94    1.54
  -7  -1   0    6.83    1.61
  -7  -1   0    7.31    1.64
  -7  -1   0    6.15    1.26
  -7  -1  -1   55.95    4.36
  -7  -1  -1   64.26    4.58
  -7  -1  -1   65.07    3.87
  -7  -1  -1   69.77    4.75
  -7  -1  -2   80.48    5.19
  -7  -1  -2   85.29    5.19
  -7  -1  -2   80.28    4.35
  -7  -1  -2   76.24    4.54
  -7  -1  -2   86.63    5.37
  -7  -1  -3   28.00    2.73
  -7  -1  -3   27.19    2.48
  -7  -1  -3   25.11    2.53
  -7  -1  -3   23.23    2.68
  -7  -1  -4   29.38    2.58
  -7  -1  -4   25.40    2.43
  -7  -1  -4   28.24    2.64
  -7  -1  -4   27.19    2.81
  -7  -1  -5   13.67    1.71
  -7  -1  -5   12.47    1.82
  -7  -1  -6    7.99    1.20
  -7  -1  -6    4.52    0.99
  -7  -1  -7   84.67    3.52
  -7  -2   5  109.95    4.47
  -7  -2   5  103.19    4.26
  -7  -2   4   54.65    3.23
  -7  -2   4   58.85    3.64
  -7  -2   4   55.91    3.38
  -7  -2   4   58.32    3.50
  -7  -2   3    2.05    0.82
  -7  -2   3    2.55    0.92
  -7  -2   3    2.70    0.94
  -7  -2   3    3.26    1.00
  -7  -2   2    0.69    0.78
  -7  -2   2    3.46    1.07
  -7  -2   2    0.56    0.74
  -7  -2   2    4.12    1.34
  -7  -2   2    0.66    0.87
  -7  -2   1    1.22    0.79
  -7  -2   1    2.64    1.10
  -7  -2   1    3.19    1.28
  -7  -2   1    1.00    0.84
  -7  -2   1    1.26    1.02
  -7  -2   0   85.58    5.51
  -7  -2   0   92.64    5.63
  -7  -2   0   75.97    5.27
  -7  -2   0   88.68    5.27
  -7  -2  -1   22.98    2.79
  -7  -2  -1   19.73    2.65
  -7  -2  -1   20.50    2.18
  -7  -2  -1   16.90    2.49
  -7  -2  -1   19.38    2.25
  -7  -2  -2   66.84    4.93
  -7  -2  -2   78.21    5.20
  -7  -2  -2   71.31    4.53
  -7  -2  -2   80.06    5.41
  -7  -2  -2   78.09    4.38
  -7  -2  -3  153.36    7.64
  -7  -2  -3  163.64    7.70
  -7  -2  -3  157.02    7.31
  -7  -2  -3  162.22    7.98
  -7  -2  -4   12.52    1.88
  -7  -2  -4    6.49    1.43
  -7  -2  -4    7.46    1.58
  -7  -2  -4    7.96    1.77
  -7  -2  -5    5.29    1.23
  -7  -2  -5    5.65    1.34
  -7  -2  -5    6.65    1.50
  -7  -2  -5    2.76    0.94
  -7  -2  -6   22.12    2.31
  -7  -2  -6   17.70    2.10
  -7  -2  -7   14.74    1.68
  -7  -2  -7   14.90    1.61
  -7  -2  -8   32.88    1.99
  -7  -3   5   43.86    2.26
  -7  -3   4  205.28    7.25
  -7  -3   4  181.24    6.88
  -7  -3   4  190.31    6.67
  -7  -3   3   34.44    2.91
  -7  -3   3   41.42    3.20
  -7  -3   3   37.32    2.94
  -7  -3   3   34.21    2.60
  -7  -3   3   31.09    2.38
  -7  -3   3   32.40    2.59
  -7  -3   2   24.83    2.33
  -7  -3   2   24.10    2.41
  -7  -3   2   19.79    2.38
  -7  -3   2   22.29    2.58
  -7  -3   2   24.71    2.54
  -7  -3   2   22.62    2.20
  -7  -3   2   24.00    2.37
  -7  -3   1   21.32    2.45
  -7  -3   1   20.34    2.42
  -7  -3   1   21.31    2.60
  -7  -3   1   19.81    2.54
  -7  -3   1   19.07    2.33
  -7  -3   1   22.66    2.41
  -7  -3   0   34.53    3.41
  -7  -3   0   40.89    3.66
  -7  -3   0   35.02    2.81
  -7  -3   0   38.19    3.54
  -7  -3   0   34.72    3.37
  -7  -3   0   37.62    3.24
  -7  -3  -1   25.08    2.94
  -7  -3  -1   23.82    2.51
  -7  -3  -1   18.73    2.57
  -7  -3  -1   24.49    3.04
  -7  -3  -1   24.02    2.80
  -7  -3  -2   35.35    3.54
  -7  -3  -2   34.46    3.48
  -7  -3  -2   35.08    3.20
  -7  -3  -2   38.90    3.73
  -7  -3  -2   31.08    3.06
  -7  -3  -3  245.22   10.45
  -7  -3  -3  278.72   10.78
  -7  -3  -3  243.14   10.08
  -7  -3  -3  256.72   10.65
   7   3   4  105.00    5.49
  -7  -3  -4  103.25    5.99
  -7  -3  -4  119.12    6.22
  -7  -3  -4  121.69    6.41
  -7  -3  -4  108.08    6.23
   7   3   5   23.69    2.45
  -7  -3  -5   26.32    2.63
  -7  -3  -5   27.50    2.67
  -7  -3  -5   27.01    2.90
  -7  -3  -5   26.04    2.80
   7   3   6    3.79    1.23
  -7  -3  -6    1.43    0.76
  -7  -3  -6    1.88    0.92
  -7  -3  -6    1.43    0.75
  -7  -3  -7   11.25    1.64
  -7  -3  -7    7.69    1.25
  -7  -3  -8   30.20    2.20
  -7  -4   4   85.79    3.86
  -7  -4   3    3.20    1.16
  -7  -4   3    2.69    0.94
  -7  -4   3    2.49    0.87
  -7  -4   2  179.38    7.70
  -7  -4   2  183.27    7.66
  -7  -4   2  176.29    7.32
  -7  -4   1   40.56    3.33
  -7  -4   1   42.11    3.26
  -7  -4   1   40.14    3.49
  -7  -4   1   40.92    3.54
  -7  -4   1   39.84    3.23
  -7  -4   0   87.89    5.38
  -7  -4   0   86.58    5.22
  -7  -4   0   89.61    4.80
  -7  -4   0   82.71    5.31
  -7  -4   0   84.12    5.37
  -7  -4   0   84.71    4.88
  -7  -4  -1    0.20    1.08
  -7  -4  -1    0.01    0.80
  -7  -4  -1    0.66    0.79
  -7  -4  -1   -1.30    1.20
  -7  -4  -1   -0.40    1.07
  -7  -4  -1   -0.95    0.82
   7   4   2    5.12    1.41
  -7  -4  -2    2.89    1.31
  -7  -4  -2    4.33    1.50
  -7  -4  -2    2.48    1.27
  -7  -4  -2    4.16    1.40
   7   4   3    1.49    0.95
  -7  -4  -3    0.62    1.02
  -7  -4  -3    0.52    1.04
  -7  -4  -3    1.12    0.85
  -7  -4  -3    1.11    0.93
   7   4   4  399.74   13.74
  -7  -4  -4  400.42   14.13
  -7  -4  -4  403.61   13.84
  -7  -4  -4  413.79   14.11
  -7  -4  -4  408.09   13.79
   7   4   5   38.92    3.33
  -7  -4  -5   37.60    3.29
  -7  -4  -5   38.08    3.15
  -7  -4  -5   41.67    3.57
  -7  -4  -5   37.75    3.15
   7   4   6   46.13    3.49
  -7  -4  -6   41.96    3.17
  -7  -4  -6   41.63    2.91
  -7  -4  -6   48.64    3.68
  -7  -4  -6   45.73    3.09
   7   4   7  106.49    5.27
  -7  -4  -7  104.44    5.24
  -7  -4  -8   19.44    1.77
  -7  -4  -8   17.21    1.51
  -7  -5   3   73.68    3.49
  -7  -5   2   -0.19    0.64
  -7  -5   1   15.53    1.74
  -7  -5   1   18.22    1.76
  -7  -5   1   19.09    2.02
  -7  -5   1   13.77    1.90
  -7  -5   1   14.22    1.72
  -7  -5   0   -0.43    0.87
  -7  -5   0    1.13    0.88
  -7  -5   0    0.09    0.66
  -7  -5   0   -0.22    0.74
  -7  -5   0    1.04    0.80
  -7  -5  -1   73.20    4.88
  -7  -5  -1   77.02    4.77
  -7  -5  -1   76.90    4.61
  -7  -5  -1   72.89    4.67
  -7  -5  -1   73.16    4.01
  -7  -5  -2   13.98    2.05
  -7  -5  -2   13.16    2.12
  -7  -5  -2   15.77    2.15
  -7  -5  -2   12.48    1.91
   7   5   3   -0.34    0.86
  -7  -5  -3    1.80    1.08
  -7  -5  -3    1.24    0.91
  -7  -5  -3   -0.14    0.78
  -7  -5  -3    0.02    0.68
   7   5   4  162.75    7.60
  -7  -5  -4  146.54    7.35
  -7  -5  -4  151.04    7.12
  -7  -5  -4  154.60    7.30
  -7  -5  -4  147.67    6.47
  -7  -5  -4  143.50    6.18
   7   5   5    1.47    1.04
  -7  -5  -5    3.16    1.03
  -7  -5  -5    2.73    1.11
  -7  -5  -5    1.80    0.98
  -7  -5  -5    0.28    0.54
   7   5   6   53.64    3.88
  -7  -5  -6   60.67    3.79
  -7  -5  -6   57.53    3.50
  -7  -5  -6   55.03    3.84
  -7  -5  -6   57.37    3.49
   7   5   7   51.89    3.56
  -7  -5  -7   55.51    3.46
  -7  -5  -7   51.60    3.10
  -7  -5  -8    0.67    0.42
  -7  -5  -8    2.13    0.59
  -7  -5  -8    0.94    0.51
  -7  -6   2    5.08    0.74
  -7  -6   1   43.27    2.44
  -7  -6   1   44.26    2.49
  -7  -6   0    0.76    0.60
  -7  -6   0    3.54    0.92
  -7  -6  -1   64.80    4.15
  -7  -6  -1   71.57    4.09
  -7  -6  -1   66.18    3.95
  -7  -6  -1   64.99    3.66
  -7  -6  -2  114.30    5.98
  -7  -6  -2  112.76    5.63
  -7  -6  -2  115.52    5.61
  -7  -6  -2  104.66    4.78
  -7  -6  -3   16.26    2.10
  -7  -6  -3   17.76    2.28
  -7  -6  -3   14.46    1.93
  -7  -6  -3   14.56    1.68
   7   6   4    3.92    1.21
  -7  -6  -4    3.96    1.39
  -7  -6  -4    2.37    1.07
  -7  -6  -4    3.09    1.16
  -7  -6  -4    4.67    1.16
   7   6   5  177.55    7.69
  -7  -6  -5  169.50    7.39
  -7  -6  -5  175.37    7.08
  -7  -6  -5  170.09    7.19
  -7  -6  -5  174.77    6.84
   7   6   6  102.92    5.28
  -7  -6  -6   91.98    4.39
  -7  -6  -6  100.98    4.86
  -7  -6  -6  101.27    4.70
  -7  -6  -7   22.71    1.91
  -7  -6  -7   22.77    1.93
  -7  -6  -8    1.25    0.46
  -7  -7   0  107.61    3.96
  -7  -7  -1   32.46    2.04
  -7  -7  -1   31.30    2.19
  -7  -7  -2   57.84    3.20
  -7  -7  -2   60.51    3.32
  -7  -7  -2   57.05    2.84
  -7  -7  -3    0.22    0.51
  -7  -7  -3    0.09    0.53
  -7  -7  -3    0.31    0.48
  -7  -7  -4    1.14    0.73
  -7  -7  -4    1.59    0.62
  -7  -7  -4    3.31    0.83
  -7  -7  -5   31.76    2.33
  -7  -7  -5   30.29    2.25
  -7  -7  -5   31.98    2.26
  -7  -7  -6    7.36    1.00
  -7  -7  -6    9.64    1.14
  -7  -7  -6    8.66    1.13
  -7  -7  -7   93.35    3.70
  -8  -1   1   11.72    1.15
  -8  -1   0    5.80    0.91
  -8  -1   0    5.51    0.81
  -8  -1  -1    6.39    1.00
  -8  -1  -1    5.19    0.85
  -8  -1  -2    2.31    0.64
  -8  -1  -2    0.73    0.38
  -8  -1  -3   21.01    1.57
  -8  -2   2   19.35    1.47
  -8  -2   1   14.72    1.42
  -8  -2   1   16.86    1.57
  -8  -2   0   21.60    1.94
  -8  -2   0   20.82    1.91
  -8  -2  -1   16.05    1.73
  -8  -2  -1   16.26    1.76
  -8  -2  -2    8.04    1.26
  -8  -2  -2    8.58    1.30
  -8  -2  -3   -0.16    0.48
  -8  -2  -3   -0.35    0.51
  -8  -2  -4   -0.10    0.49
  -8  -3   2    7.87    1.02
  -8  -3   1    0.78    0.48
  -8  -3   1    1.15    0.63
  -8  -3   0  110.03    4.88
  -8  -3   0  118.42    5.23
  -8  -3  -1    0.49    0.68
  -8  -3  -1   -0.13    0.62
  -8  -3  -1    0.75    0.69
  -8  -3  -2   27.94    2.51
  -8  -3  -2   28.67    2.46
  -8  -3  -2   30.04    2.49
  -8  -3  -3   23.78    2.14
  -8  -3  -3   25.56    1.94
  -8  -3  -3   23.40    2.18
  -8  -3  -4   55.93    3.06
  -8  -3  -4   59.02    3.07
  -8  -3  -4   51.93    3.15
  -8  -3  -5   11.83    1.28
  -8  -3  -5   13.33    1.34
  -8  -4   1    0.99    0.51
  -8  -4   0   20.50    1.80
  -8  -4   0   18.71    1.89
  -8  -4  -1   30.46    2.44
  -8  -4  -1   30.44    2.45
  -8  -4  -2   71.51    4.11
  -8  -4  -2   70.03    3.92
  -8  -4  -2   69.08    3.42
  -8  -4  -2   72.39    3.94
  -8  -4  -3    8.22    1.30
  -8  -4  -3    9.72    1.28
  -8  -4  -3    7.14    1.22
  -8  -4  -4   45.59    2.85
  -8  -4  -4   50.69    2.97
  -8  -4  -4   43.30    2.74
  -8  -4  -5   21.36    1.64
  -8  -4  -5   23.44    1.91
  -8  -4  -5   19.84    1.57
  -8  -4  -6  120.80    4.55
  -8  -5   0   45.39    2.31
  -8  -5   0   42.58    2.47
  -8  -5  -1  199.45    6.67
  -8  -5  -1  180.38    6.44
  -8  -5  -2    0.15    0.55
  -8  -5  -2    1.38    0.61
  -8  -5  -2   -0.62    0.59
  -8  -5  -3    3.98    0.97
  -8  -5  -3    4.27    0.90
  -8  -5  -3    5.86    0.96
  -8  -5  -4    5.49    1.07
  -8  -5  -4    4.62    0.89
  -8  -5  -5   25.82    1.82
  -8  -5  -5   31.88    2.18
  -8  -5  -6    3.59    0.74
  -8  -6  -2    0.12    0.44
  -8  -6  -2    0.50    0.41
  -8  -6  -3  113.01    4.40
  -8  -6  -3  109.94    4.25
  -8  -6  -4    3.29    0.68
  -8  -6  -4    3.01    0.70
  -8  -6  -5   21.26    1.56
   0   0   0    0.00    0.00


TITL exp_771 in P-1
REM P-1 (#2 in standard setting)
CELL 1.54184   6.795609   7.284001  10.261494  70.4831  80.9020  66.4036
ZERR    1.00   0.000228   0.000265   0.000371   0.0033   0.0029   0.0033
LATT  1
SFAC C H N O
UNIT 8.00 8.00 8.00 8.00
TREF
HKLF 4
END
_computing_structure_solution     'SHELXT 2014/5 (Sheldrick, 2014)'
;
_shelx_hkl_checksum              80913
loop_
_space_group_symop_operation_xyz
'x, y, z'
'-x, -y, -z'
loop_
_atom_site_label
_atom_site_type_symbol
_atom_site_fract_x
_atom_site_fract_y
_atom_site_fract_z
_atom_site_U_iso_or_equiv
_atom_site_adp_type
_atom_site_occupancy
_atom_site_site_symmetry_order
_atom_site_calc_flag
_atom_site_refinement_flags_posn
_atom_site_refinement_flags_adp
_atom_site_refinement_flags_occupancy
_atom_site_disorder_assembly
_atom_site_disorder_group
O1 O 0.35060(14) 0.51918(15) 0.84804(9) 0.0181(2) Uani 1 1 d . . . . .
O2 O 0.05542(15) 0.65042(16) 0.72322(10) 0.0213(2) Uani 1 1 d . . . . .
N2 N 0.20282(17) 0.55312(17) 1.10960(11) 0.0150(2) Uani 1 1 d D . . . .
H1N H 0.3185(19) 0.502(2) 1.1604(15) 0.018 Uiso 1 1 d D U . . .
H2N H 0.115(2) 0.487(2) 1.1547(15) 0.018 Uiso 1 1 d D U . . .
H3N H 0.245(3) 0.530(3) 1.0281(11) 0.018 Uiso 1 1 d D U . . .
N1 N 0.58332(17) 0.63984(17) 0.62398(11) 0.0172(2) Uani 1 1 d . . . . .
C1 C 0.2495(2) 0.61162(19) 0.73708(13) 0.0153(3) Uani 1 1 d . . . . .
C2 C 0.3748(2) 0.68728(19) 0.60768(13) 0.0148(3) Uani 1 1 d . . . . .
C3 C 0.2745(2) 0.8035(2) 0.48191(14) 0.0182(3) Uani 1 1 d . . . . .
H3 H 0.126710 0.833058 0.473916 0.022 Uiso 1 1 calc R U . . .
C4 C 0.3938(2) 0.8755(2) 0.36830(14) 0.0213(3) Uani 1 1 d . . . . .
H4 H 0.328803 0.957439 0.281505 0.026 Uiso 1 1 calc R U . . .
C5 C 0.6094(2) 0.8256(2) 0.38407(14) 0.0204(3) Uani 1 1 d . . . . .
H5 H 0.695873 0.870981 0.307963 0.025 Uiso 1 1 calc R U . . .
C6 C 0.6969(2) 0.7080(2) 0.51312(14) 0.0199(3) Uani 1 1 d . . . . .
H6 H 0.845021 0.674204 0.523258 0.024 Uiso 1 1 calc R U . . .
C7 C 0.2360(2) 0.8998(2) 1.00980(13) 0.0156(3) Uani 1 1 d . . . . .
H7A H 0.280609 0.870294 0.919950 0.019 Uiso 1 1 calc R U . . .
H7B H 0.366892 0.849663 1.062801 0.019 Uiso 1 1 calc R U . . .
C8 C 0.0902(2) 0.78292(19) 1.08993(13) 0.0143(3) Uani 1 1 d . . . . .
H8 H 0.054931 0.806113 1.182942 0.017 Uiso 1 1 calc R U . . .
C9 C -0.1189(2) 0.8636(2) 1.01514(13) 0.0157(3) Uani 1 1 d . . . . .
H9A H -0.212803 0.789777 1.071309 0.019 Uiso 1 1 calc R U . . .
H9B H -0.087061 0.833039 0.925388 0.019 Uiso 1 1 calc R U . . .
loop_
_atom_site_aniso_label
_atom_site_aniso_U_11
_atom_site_aniso_U_22
_atom_site_aniso_U_33
_atom_site_aniso_U_23
_atom_site_aniso_U_13
_atom_site_aniso_U_12
O1 0.0169(5) 0.0210(5) 0.0143(4) -0.0025(4) -0.0013(3) -0.0069(4)
O2 0.0154(5) 0.0266(5) 0.0201(5) -0.0014(4) -0.0006(4) -0.0106(4)
N2 0.0136(5) 0.0154(5) 0.0146(5) -0.0016(4) -0.0015(4) -0.0059(4)
N1 0.0150(5) 0.0181(5) 0.0182(6) -0.0034(4) -0.0009(4) -0.0074(4)
C1 0.0155(6) 0.0140(6) 0.0165(6) -0.0040(5) 0.0000(5) -0.0060(5)
C2 0.0158(6) 0.0137(6) 0.0159(6) -0.0042(5) 0.0000(5) -0.0070(5)
C3 0.0166(6) 0.0202(6) 0.0179(6) -0.0039(5) -0.0022(5) -0.0077(5)
C4 0.0264(7) 0.0226(7) 0.0148(6) -0.0025(5) -0.0023(5) -0.0112(6)
C5 0.0242(7) 0.0222(7) 0.0173(6) -0.0057(5) 0.0049(5) -0.0132(6)
C6 0.0161(6) 0.0218(7) 0.0227(7) -0.0060(5) 0.0015(5) -0.0092(5)
C7 0.0122(6) 0.0162(6) 0.0175(6) -0.0024(5) -0.0013(5) -0.0062(5)
C8 0.0133(6) 0.0145(6) 0.0148(6) -0.0034(5) -0.0007(5) -0.0055(5)
C9 0.0132(6) 0.0162(6) 0.0180(6) -0.0031(5) -0.0021(5) -0.0068(5)
loop_
_atom_type_symbol
_atom_type_description
_atom_type_scat_dispersion_real
_atom_type_scat_dispersion_imag
_atom_type_scat_source
C C 0.0181 0.0091 'International Tables Vol C Tables 4.2.6.8 and 6.1.1.4'
H H 0.0000 0.0000 'International Tables Vol C Tables 4.2.6.8 and 6.1.1.4'
N N 0.0311 0.0180 'International Tables Vol C Tables 4.2.6.8 and 6.1.1.4'
O O 0.0492 0.0322 'International Tables Vol C Tables 4.2.6.8 and 6.1.1.4'
loop_
_geom_angle_atom_site_label_1
_geom_angle_atom_site_label_2
_geom_angle_atom_site_label_3
_geom_angle
_geom_angle_site_symmetry_1
_geom_angle_site_symmetry_3
C8 N2 H1N 110.2(11) . .
C8 N2 H2N 109.4(11) . .
H1N N2 H2N 107.9(15) . .
C8 N2 H3N 110.2(11) . .
H1N N2 H3N 108.5(15) . .
H2N N2 H3N 110.7(15) . .
C6 N1 C2 117.60(11) . .
O2 C1 O1 126.44(12) . .
O2 C1 C2 116.97(11) . .
O1 C1 C2 116.58(11) . .
N1 C2 C3 122.83(12) . .
N1 C2 C1 116.06(11) . .
C3 C2 C1 121.09(12) . .
C4 C3 C2 118.88(12) . .
C4 C3 H3 120.6 . .
C2 C3 H3 120.6 . .
C5 C4 C3 118.59(13) . .
C5 C4 H4 120.7 . .
C3 C4 H4 120.7 . .
C4 C5 C6 118.74(12) . .
C4 C5 H5 120.6 . .
C6 C5 H5 120.6 . .
N1 C6 C5 123.34(13) . .
N1 C6 H6 118.3 . .
C5 C6 H6 118.3 . .
C8 C7 C9 110.50(10) . 2_577
C8 C7 H7A 109.6 . .
C9 C7 H7A 109.6 2_577 .
C8 C7 H7B 109.6 . .
C9 C7 H7B 109.6 2_577 .
H7A C7 H7B 108.1 . .
N2 C8 C9 109.61(10) . .
N2 C8 C7 110.18(10) . .
C9 C8 C7 111.21(10) . .
N2 C8 H8 108.6 . .
C9 C8 H8 108.6 . .
C7 C8 H8 108.6 . .
C8 C9 C7 110.96(10) . 2_577
C8 C9 H9A 109.4 . .
C7 C9 H9A 109.4 2_577 .
C8 C9 H9B 109.4 . .
C7 C9 H9B 109.4 2_577 .
H9A C9 H9B 108.0 . .
loop_
_geom_bond_atom_site_label_1
_geom_bond_atom_site_label_2
_geom_bond_distance
_geom_bond_site_symmetry_2
O1 C1 1.2595(16) .
O2 C1 1.2546(16) .
N2 C8 1.4919(16) .
N2 H1N 0.891(9) .
N2 H2N 0.892(9) .
N2 H3N 0.889(9) .
N1 C6 1.3371(17) .
N1 C2 1.3414(17) .
C1 C2 1.5235(17) .
C2 C3 1.3904(18) .
C3 C4 1.3874(19) .
C3 H3 0.9500 .
C4 C5 1.384(2) .
C4 H4 0.9500 .
C5 C6 1.387(2) .
C5 H5 0.9500 .
C6 H6 0.9500 .
C7 C8 1.5276(17) .
C7 C9 1.5297(17) 2_577
C7 H7A 0.9900 .
C7 H7B 0.9900 .
C8 C9 1.5258(17) .
C8 H8 1.0000 .
C9 H9A 0.9900 .
C9 H9B 0.9900 .
loop_
_geom_torsion_atom_site_label_1
_geom_torsion_atom_site_label_2
_geom_torsion_atom_site_label_3
_geom_torsion_atom_site_label_4
_geom_torsion
_geom_torsion_site_symmetry_1
_geom_torsion_site_symmetry_2
_geom_torsion_site_symmetry_3
_geom_torsion_site_symmetry_4
C6 N1 C2 C3 -0.26(19) . . . .
C6 N1 C2 C1 -178.52(11) . . . .
O2 C1 C2 N1 -178.44(11) . . . .
O1 C1 C2 N1 2.71(17) . . . .
O2 C1 C2 C3 3.27(18) . . . .
O1 C1 C2 C3 -175.58(12) . . . .
N1 C2 C3 C4 -0.6(2) . . . .
C1 C2 C3 C4 177.57(12) . . . .
C2 C3 C4 C5 1.1(2) . . . .
C3 C4 C5 C6 -0.8(2) . . . .
C2 N1 C6 C5 0.6(2) . . . .
C4 C5 C6 N1 0.0(2) . . . .
C9 C7 C8 N2 178.05(10) 2_577 . . .
C9 C7 C8 C9 56.31(15) 2_577 . . .
N2 C8 C9 C7 -178.65(10) . . . 2_577
C7 C8 C9 C7 -56.57(15) . . . 2_577
